 
data_xs3185a_FZ
 
_audit_creation_method            'SHELXL-2018/3'
_shelx_SHELXL_version_number      '2018/3'
_chemical_name_systematic         ?
_chemical_name_common             ?
_chemical_melting_point           ?
_chemical_formula_moiety          
 'Bi7.54 O24 W3.74'
_chemical_formula_sum
 'Bi7.54 O24 W3.74' 
_chemical_formula_weight          2647.31

loop_
 _atom_type_symbol
 _atom_type_description
 _atom_type_scat_dispersion_real
 _atom_type_scat_dispersion_imag
 _atom_type_scat_source
 'Bi'  'Bi'  -4.1077  10.2566
 'International Tables Vol C Tables 4.2.6.8 and 6.1.1.4'
 'O'  'O'   0.0106   0.0060
 'International Tables Vol C Tables 4.2.6.8 and 6.1.1.4'
 'W'  'W'  -0.8490   6.8722
 'International Tables Vol C Tables 4.2.6.8 and 6.1.1.4'
 
_space_group_crystal_system       orthorhombic
_space_group_IT_number            29
_space_group_name_H-M_alt         'P c a 21'
_space_group_name_Hall            'P 2c -2ac'
 
_shelx_space_group_comment
;
The symmetry employed for this shelxl refinement is uniquely defined
by the following loop, which should always be used as a source of
symmetry information in preference to the above space-group names.
They are only intended as comments.
;
 
loop_
 _space_group_symop_operation_xyz
 'x, y, z'
 '-x, -y, z+1/2'
 '-x+1/2, y, z+1/2'
 'x+1/2, -y, z'
 
_cell_length_a                    5.4310(2)
_cell_length_b                    16.4267(7)
_cell_length_c                    5.4516(3)
_cell_angle_alpha                 90
_cell_angle_beta                  90
_cell_angle_gamma                 90
_cell_volume                      486.36(4)
_cell_formula_units_Z             1
_cell_measurement_temperature     213(2)
_cell_measurement_reflns_used     2600
_cell_measurement_theta_min       2.4910
_cell_measurement_theta_max       30.2360
 
_exptl_crystal_description        'small plate'
_exptl_crystal_colour             colorless
_exptl_crystal_density_meas       ?
_exptl_crystal_density_method     ?
_exptl_crystal_density_diffrn     9.039          
_exptl_crystal_F_000              1095
_exptl_transmission_factor_min    ?
_exptl_transmission_factor_max    ?
_exptl_crystal_size_max           0.074
_exptl_crystal_size_mid           0.048
_exptl_crystal_size_min           0.010
_exptl_absorpt_coefficient_mu     90.057
_shelx_estimated_absorpt_T_min    0.057
_shelx_estimated_absorpt_T_max    0.466
_exptl_absorpt_correction_type    multi-scan
_exptl_absorpt_correction_T_min   0.131
_exptl_absorpt_correction_T_max   1.000
_exptl_absorpt_process_details    
;
CrysAlisPro 1.171.42.49 (Rigaku Oxford Diffraction, 2022)
Empirical absorption correction using spherical harmonics,
implemented in SCALE3 ABSPACK scaling algorithm.
;
_oxdiff_exptl_absorpt_empirical_full_min           0.508
_oxdiff_exptl_absorpt_empirical_full_max           4.279
_oxdiff_exptl_absorpt_empirical_details
;
Empirical correction (ABSPACK) includes:
- Absorption correction using spherical harmonics
- Frame scaling
;
_exptl_absorpt_special_details    ?
_diffrn_ambient_temperature       213(2)
_diffrn_radiation_wavelength      0.71073
_diffrn_radiation_type            MoK\a
_diffrn_radiation_source          'SuperNova (Mo) X-ray Source' 
_diffrn_radiation_monochromator   'mirror' 
_diffrn_measurement_device_type   'SuperNova, Dual, Cu at zero, Atlas' 
_diffrn_measurement_method        '\w scans'
_diffrn_standards_number          '.'
_diffrn_standards_interval_time   '.'
_diffrn_reflns_number             7329
_diffrn_reflns_av_unetI/netI      0.0348
_diffrn_reflns_av_R_equivalents   0.0563
_diffrn_reflns_limit_h_min        -7
_diffrn_reflns_limit_h_max        7
_diffrn_reflns_limit_k_min        -23
_diffrn_reflns_limit_k_max        23
_diffrn_reflns_limit_l_min        -7
_diffrn_reflns_limit_l_max        7
_diffrn_reflns_theta_min          2.480
_diffrn_reflns_theta_max          29.994
_diffrn_reflns_theta_full         25.242
_diffrn_measured_fraction_theta_max   0.999
_diffrn_measured_fraction_theta_full  0.998
_diffrn_reflns_Laue_measured_fraction_max    0.999
_diffrn_reflns_Laue_measured_fraction_full   0.998
_diffrn_reflns_point_group_measured_fraction_max   0.995
_diffrn_reflns_point_group_measured_fraction_full  0.992
_reflns_number_total              1411
_reflns_number_gt                 1096
_reflns_threshold_expression      'I > 2\s(I)'
_reflns_Friedel_coverage          0.802
_reflns_Friedel_fraction_max      0.991
_reflns_Friedel_fraction_full     0.985
 
_reflns_special_details
;
 Reflections were merged by SHELXL according to the crystal
 class for the calculation of statistics and refinement.
 
 _reflns_Friedel_fraction is defined as the number of unique
 Friedel pairs measured divided by the number that would be
 possible theoretically, ignoring centric projections and
 systematic absences. Completness statistics refer to single and
 composite reflections containing twin component 1 only.
;
 
_computing_data_collection        'CrysAlisPro 1.171.42.49 (Rigaku OD, 2022)'
_computing_cell_refinement        'CrysAlisPro 1.171.42.49 (Rigaku OD, 2022)'
_computing_data_reduction         'CrysAlisPro 1.171.42.49 (Rigaku OD, 2022)'
_computing_structure_solution     'SHELXS-2018/3 (Sheldrick, 2018)'
_computing_structure_refinement   'SHELXL-2018/3 (Sheldrick, 2018)'
_computing_molecular_graphics     'SHELXTL v6.10 (Sheldrick, 2008)'
_computing_publication_material   'SHELXTL v6.10 (Sheldrick, 2008)'
_refine_special_details
;
 Refined as a 2-component inversion twin.
;
_refine_ls_structure_factor_coef  Fsqd
_refine_ls_matrix_type            full
_refine_ls_weighting_scheme       calc
_refine_ls_weighting_details
'w=1/[\s^2^(Fo^2^)+(0.0165P)^2^] where P=(Fo^2^+2Fc^2^)/3'
_atom_sites_solution_primary      direct
_atom_sites_solution_secondary    difmap
_atom_sites_solution_hydrogens    .
_refine_ls_hydrogen_treatment     undef
_refine_ls_extinction_method      'SHELXL-2018/3 (Sheldrick 2018)'
_refine_ls_extinction_coef        0.00039(7)
_refine_ls_extinction_expression
 'Fc^*^=kFc[1+0.001xFc^2^\l^3^/sin(2\q)]^-1/4^'
_refine_ls_abs_structure_details
;
 Refined as an inversion twin.
;
_refine_ls_abs_structure_Flack    -0.012(18)
_chemical_absolute_configuration  ad
_refine_ls_number_reflns          1411
_refine_ls_number_parameters      69
_refine_ls_number_restraints      16
_refine_ls_R_factor_all           0.0398
_refine_ls_R_factor_gt            0.0307
_refine_ls_wR_factor_ref          0.0724
_refine_ls_wR_factor_gt           0.0672
_refine_ls_goodness_of_fit_ref    1.156
_refine_ls_restrained_S_all       1.153
_refine_ls_shift/su_max           0.000
_refine_ls_shift/su_mean          0.000
 
loop_
 _atom_site_label
 _atom_site_type_symbol
 _atom_site_fract_x
 _atom_site_fract_y
 _atom_site_fract_z
 _atom_site_U_iso_or_equiv
 _atom_site_adp_type
 _atom_site_occupancy
 _atom_site_site_symmetry_order  
 _atom_site_calc_flag
 _atom_site_refinement_flags_posn
 _atom_site_refinement_flags_adp
 _atom_site_refinement_flags_occupancy
 _atom_site_disorder_assembly
 _atom_site_disorder_group
Bi1 Bi -0.01814(10) -0.07761(4) 0.00270(11) 0.0081(3) Uani 0.943(12) 1 d . U P . .
Bi2 Bi 0.02095(11) -0.42232(4) -0.00301(11) 0.0068(3) Uani 0.941(12) 1 d . U P . .
W1 W -0.49420(9) -0.24974(5) 0.02077(14) 0.0044(3) Uani 0.934(12) 1 d . U P . .
O1 O -0.291(2) -0.2639(6) 0.363(2) 0.0122(13) Uani 1 1 d . U . . .
O2 O -0.7949(18) -0.2352(6) 0.276(2) 0.0122(13) Uani 1 1 d . U . . .
O3 O -0.262(3) -0.4999(4) 0.281(2) 0.0122(13) Uani 1 1 d . U . . .
O4 O 0.261(2) -0.0001(5) 0.289(2) 0.0122(13) Uani 1 1 d . U . . .
O5 O -0.446(2) -0.1401(6) 0.100(2) 0.016(2) Uani 1 1 d . U . . .
O6 O -0.561(2) -0.3589(6) 0.087(2) 0.015(2) Uani 1 1 d . U . . .
 
loop_
 _atom_site_aniso_label
 _atom_site_aniso_U_11
 _atom_site_aniso_U_22
 _atom_site_aniso_U_33
 _atom_site_aniso_U_23
 _atom_site_aniso_U_13
 _atom_site_aniso_U_12
Bi1 0.0070(3) 0.0076(3) 0.0096(6) 0.0015(5) -0.0018(6) 0.00065(16)
Bi2 0.0064(3) 0.0079(3) 0.0060(5) -0.0019(4) 0.0013(6) 0.00084(17)
W1 0.0036(3) 0.0050(3) 0.0045(7) 0.0007(2) 0.0031(5) -0.00061(14)
O1 0.011(3) 0.019(3) 0.007(2) 0.004(2) 0.0014(17) 0.000(2)
O2 0.011(3) 0.019(3) 0.007(2) 0.004(2) 0.0014(17) 0.000(2)
O3 0.011(3) 0.019(3) 0.007(2) 0.004(2) 0.0014(17) 0.000(2)
O4 0.011(3) 0.019(3) 0.007(2) 0.004(2) 0.0014(17) 0.000(2)
O5 0.019(5) 0.009(4) 0.021(7) 0.001(4) 0.004(5) -0.003(4)
O6 0.024(6) 0.010(4) 0.010(6) 0.003(4) -0.001(5) -0.003(4)
 
_geom_special_details
;
 All esds (except the esd in the dihedral angle between two l.s. planes)
 are estimated using the full covariance matrix.  The cell esds are taken
 into account individually in the estimation of esds in distances, angles
 and torsion angles; correlations between esds in cell parameters are only
 used when they are defined by crystal symmetry.  An approximate (isotropic)
 treatment of cell esds is used for estimating esds involving l.s. planes.
;
 
loop_
 _geom_bond_atom_site_label_1
 _geom_bond_atom_site_label_2
 _geom_bond_distance
 _geom_bond_site_symmetry_2
 _geom_bond_publ_flag
Bi1 O4 2.175(11) 2_554 ?
Bi1 O4 2.219(11) 3_554 ?
Bi1 O4 2.345(11) 4_455 ?
Bi1 O5 2.431(12) 3_454 ?
Bi1 O4 2.522(11) . ?
Bi1 O5 2.594(11) . ?
Bi2 O3 2.174(11) 2_544 ?
Bi2 O3 2.234(11) 3_454 ?
Bi2 O3 2.329(11) 4_545 ?
Bi2 O6 2.475(11) 3_454 ?
Bi2 O3 2.526(11) . ?
Bi2 O6 2.548(11) 1_655 ?
Bi2 Bi2 3.6905(8) 3_554 ?
Bi2 Bi2 3.6905(8) 3 ?
W1 O2 1.775(11) 3_354 ?
W1 O1 1.785(10) 3_454 ?
W1 O6 1.865(9) . ?
W1 O5 1.871(10) . ?
W1 O2 2.158(10) . ?
W1 O1 2.182(11) . ?
 
loop_
 _geom_angle_atom_site_label_1
 _geom_angle_atom_site_label_2
 _geom_angle_atom_site_label_3
 _geom_angle
 _geom_angle_site_symmetry_1
 _geom_angle_site_symmetry_3
 _geom_angle_publ_flag
O4 Bi1 O4 76.3(2) 2_554 3_554 ?
O4 Bi1 O4 74.15(17) 2_554 4_455 ?
O4 Bi1 O4 111.0(3) 3_554 4_455 ?
O4 Bi1 O5 73.5(3) 2_554 3_454 ?
O4 Bi1 O5 79.6(4) 3_554 3_454 ?
O4 Bi1 O5 142.1(4) 4_455 3_454 ?
O4 Bi1 O4 113.6(3) 2_554 . ?
O4 Bi1 O4 69.94(15) 3_554 . ?
O4 Bi1 O4 67.7(2) 4_455 . ?
O5 Bi1 O4 145.1(4) 3_454 . ?
O4 Bi1 O5 78.4(4) 2_554 . ?
O4 Bi1 O5 153.8(4) 3_554 . ?
O4 Bi1 O5 67.8(4) 4_455 . ?
O5 Bi1 O5 86.9(3) 3_454 . ?
O4 Bi1 O5 127.7(4) . . ?
O3 Bi2 O3 76.0(2) 2_544 3_454 ?
O3 Bi2 O3 74.51(17) 2_544 4_545 ?
O3 Bi2 O3 110.9(3) 3_454 4_545 ?
O3 Bi2 O6 72.9(4) 2_544 3_454 ?
O3 Bi2 O6 79.6(4) 3_454 3_454 ?
O3 Bi2 O6 141.9(4) 4_545 3_454 ?
O3 Bi2 O3 113.6(3) 2_544 . ?
O3 Bi2 O3 69.65(14) 3_454 . ?
O3 Bi2 O3 67.9(2) 4_545 . ?
O6 Bi2 O3 145.0(4) 3_454 . ?
O3 Bi2 O6 78.9(4) 2_544 1_655 ?
O3 Bi2 O6 153.7(4) 3_454 1_655 ?
O3 Bi2 O6 69.1(4) 4_545 1_655 ?
O6 Bi2 O6 85.7(3) 3_454 1_655 ?
O3 Bi2 O6 129.1(4) . 1_655 ?
O3 Bi2 Bi2 36.4(2) 2_544 3_554 ?
O3 Bi2 Bi2 92.0(3) 3_454 3_554 ?
O3 Bi2 Bi2 98.6(3) 4_545 3_554 ?
O6 Bi2 Bi2 43.5(3) 3_454 3_554 ?
O3 Bi2 Bi2 149.6(2) . 3_554 ?
O6 Bi2 Bi2 62.7(3) 1_655 3_554 ?
O3 Bi2 Bi2 89.7(3) 2_544 3 ?
O3 Bi2 Bi2 144.5(2) 3_454 3 ?
O3 Bi2 Bi2 33.6(2) 4_545 3 ?
O6 Bi2 Bi2 127.5(3) 3_454 3 ?
O3 Bi2 Bi2 87.5(3) . 3 ?
O6 Bi2 Bi2 42.0(3) 1_655 3 ?
Bi2 Bi2 Bi2 95.22(3) 3_554 3 ?
O2 W1 O1 102.5(6) 3_354 3_454 ?
O2 W1 O6 98.6(5) 3_354 . ?
O1 W1 O6 97.8(5) 3_454 . ?
O2 W1 O5 97.8(5) 3_354 . ?
O1 W1 O5 96.6(5) 3_454 . ?
O6 W1 O5 155.3(6) . . ?
O2 W1 O2 88.94(10) 3_354 . ?
O1 W1 O2 168.6(6) 3_454 . ?
O6 W1 O2 80.5(4) . . ?
O5 W1 O2 81.4(4) . . ?
O2 W1 O1 169.9(5) 3_354 . ?
O1 W1 O1 87.63(19) 3_454 . ?
O6 W1 O1 80.2(4) . . ?
O5 W1 O1 80.4(5) . . ?
O2 W1 O1 81.0(5) . . ?
W1 O1 W1 146.7(6) 3_455 . ?
W1 O2 W1 163.3(6) 3_355 . ?
Bi2 O3 Bi2 115.4(5) 2_545 3_455 ?
Bi2 O3 Bi2 110.0(3) 2_545 4_445 ?
Bi2 O3 Bi2 110.1(6) 3_455 4_445 ?
Bi2 O3 Bi2 105.2(5) 2_545 . ?
Bi2 O3 Bi2 114.7(3) 3_455 . ?
Bi2 O3 Bi2 100.2(4) 4_445 . ?
Bi1 O4 Bi1 115.9(5) 2 3 ?
Bi1 O4 Bi1 110.3(3) 2 4 ?
Bi1 O4 Bi1 109.9(6) 3 4 ?
Bi1 O4 Bi1 105.2(5) 2 . ?
Bi1 O4 Bi1 114.4(3) 3 . ?
Bi1 O4 Bi1 99.8(4) 4 . ?
W1 O5 Bi1 127.1(5) . 3_455 ?
W1 O5 Bi1 117.4(5) . . ?
Bi1 O5 Bi1 95.2(4) 3_455 . ?
W1 O6 Bi2 124.3(5) . 3_455 ?
W1 O6 Bi2 121.9(5) . 1_455 ?
Bi2 O6 Bi2 94.6(4) 3_455 1_455 ?
 
loop_
 _geom_torsion_atom_site_label_1
 _geom_torsion_atom_site_label_2
 _geom_torsion_atom_site_label_3
 _geom_torsion_atom_site_label_4
 _geom_torsion
 _geom_torsion_site_symmetry_1
 _geom_torsion_site_symmetry_2
 _geom_torsion_site_symmetry_3
 _geom_torsion_site_symmetry_4
 _geom_torsion_publ_flag
O2 W1 O5 Bi1 128.2(7) 3_354 . . 3_455 ?
O1 W1 O5 Bi1 -128.2(7) 3_454 . . 3_455 ?
O6 W1 O5 Bi1 -3.0(16) . . . 3_455 ?
O2 W1 O5 Bi1 40.5(6) . . . 3_455 ?
O1 W1 O5 Bi1 -41.8(6) . . . 3_455 ?
O2 W1 O5 Bi1 -110.5(6) 3_354 . . . ?
O1 W1 O5 Bi1 -6.9(7) 3_454 . . . ?
O6 W1 O5 Bi1 118.3(11) . . . . ?
O2 W1 O5 Bi1 161.7(6) . . . . ?
O1 W1 O5 Bi1 79.5(6) . . . . ?
O2 W1 O6 Bi2 -149.9(6) 3_354 . . 3_455 ?
O1 W1 O6 Bi2 106.1(7) 3_454 . . 3_455 ?
O5 W1 O6 Bi2 -18.9(16) . . . 3_455 ?
O2 W1 O6 Bi2 -62.5(6) . . . 3_455 ?
O1 W1 O6 Bi2 19.9(6) . . . 3_455 ?
O2 W1 O6 Bi2 -27.4(7) 3_354 . . 1_455 ?
O1 W1 O6 Bi2 -131.4(6) 3_454 . . 1_455 ?
O5 W1 O6 Bi2 103.6(12) . . . 1_455 ?
O2 W1 O6 Bi2 60.0(6) . . . 1_455 ?
O1 W1 O6 Bi2 142.4(6) . . . 1_455 ?
 
_refine_diff_density_max    1.567
_refine_diff_density_min   -2.471
_refine_diff_density_rms    0.471

_shelx_res_file
;
TITL xs3185a in Pca21
    xs3185a_FZ.res
    created by SHELXL-2018/3 at 23:32:23 on 25-May-2023
CELL  0.71073    5.4310   16.4267    5.4516    90.000    90.000    90.000
ZERR        1    0.0002    0.0007    0.0003     0.000     0.000     0.000
LATT  -1
SYMM             - X ,            - Y ,    0.50000 + Z
SYMM     0.50000 - X ,              Y ,    0.50000 + Z
SYMM     0.50000 + X ,            - Y ,              Z
SFAC Bi  O  W
UNIT     7.54   24   3.74

TEMP -60

ACTA
HTAB
BOND
BOND $H
CONF
WPDB

L.S. 10
FMAP 2
PLAN 10
OMIT -2 60

SIZE 0.074 0.048 0.010

TWIN

rem restraints
DELU 0.005

rem constraints
EADP O1 O2 O3 O4

WGHT    0.016500
EXTI    0.000388
BASF  -0.01237
FVAR       0.99545   0.94256   0.94088   0.93439
BI1   1   -0.018137   -0.077612    0.002700    21.00000    0.00695    0.00762 =
         0.00962    0.00148   -0.00180    0.00065
BI2   1    0.020947   -0.422325   -0.003006    31.00000    0.00638    0.00792 =
         0.00601   -0.00190    0.00134    0.00084
W1    3   -0.494203   -0.249743    0.020768    41.00000    0.00361    0.00496 =
         0.00454    0.00073    0.00309   -0.00061
O1    2   -0.290877   -0.263914    0.363399    11.00000    0.01093    0.01870 =
         0.00701    0.00402    0.00137    0.00020
O2    2   -0.794850   -0.235212    0.275875    11.00000    0.01093    0.01870 =
         0.00701    0.00402    0.00137    0.00020
O3    2   -0.261707   -0.499919    0.281053    11.00000    0.01093    0.01870 =
         0.00701    0.00402    0.00137    0.00020
O4    2    0.261341   -0.000106    0.288990    11.00000    0.01093    0.01870 =
         0.00701    0.00402    0.00137    0.00020
O5    2   -0.445702   -0.140095    0.100124    11.00000    0.01912    0.00885 =
         0.02148    0.00148    0.00440   -0.00326
O6    2   -0.560632   -0.358910    0.087035    11.00000    0.02443    0.01011 =
         0.01049    0.00284   -0.00146   -0.00278
HKLF 4




REM  xs3185a in Pca21
REM wR2 = 0.0724, GooF = S = 1.156, Restrained GooF = 1.153 for all data
REM R1 = 0.0307 for 1096 Fo > 4sig(Fo) and 0.0398 for all 1411 data
REM 69 parameters refined using 16 restraints

END

WGHT      0.0165      0.0000

REM No hydrogen bonds found for HTAB generation

REM Highest difference peak  1.567,  deepest hole -2.471,  1-sigma level  0.471
Q1    1  -0.4690 -0.3217  0.0397  11.00000  0.05    1.57
Q2    1  -0.4784 -0.2812 -0.1102  11.00000  0.05    1.55
Q3    1  -0.0649 -0.1135  0.0690  11.00000  0.05    1.54
Q4    1  -0.0603 -0.0464  0.1257  11.00000  0.05    1.49
Q5    1  -0.4881 -0.2773  0.2180  11.00000  0.05    1.48
Q6    1  -0.0261 -0.0481 -0.1465  11.00000  0.05    1.46
Q7    1   0.0438 -0.3926  0.1533  11.00000  0.05    1.45
Q8    1   0.0514 -0.3976 -0.2088  11.00000  0.05    1.45
Q9    1   0.0307 -0.3691 -0.0488  11.00000  0.05    1.44
Q10   1  -0.5664 -0.2409  0.1421  11.00000  0.05    1.43
;
_shelx_res_checksum   93114

_shelx_hkl_file
;
   0   0   1-14.2758 16.0458   5
   0   0   1 7.23168 14.1011   4
   0   0   1 15.5802 22.7813   6
   0   0   1 17.1741 13.9600   2
   0   0  -1 17.3659 45.0320   2
   0   0  -1 23.7321 12.9581   4
   0   0  -1-1.16818 52.2450   7
   0   0   1-21.4523 38.0997   7
   0   0   2 394094. 4589.99   7
   0   0  -2 434887. 5503.83   2
   0   0   2 377555. 3122.32   5
   0   0   2 396979. 3069.11   4
   0   0   2 442949. 3861.07   2
   0   0   2 396835. 4318.05   6
   0   0  -2 410573. 2984.82   4
   0   0  -2 374908. 6196.27   7
   0   0   3-2.21542 29.0239   7
   0   0   3-14.0493 41.5421   5
   0   0   3 57.2488 72.4499   6
   0   0   3-23.4625 72.6673   2
   0   0   3-21.9806 19.0343   4
   0   0   4 307168. 5960.89   6
   0   0   4 304143. 5493.53   7
   0   0   5-114.083 178.833   6
   0   0   5 254.782 225.006   7
   0   0   5 193.313 158.286   9
   0   0   6 144866. 4817.69   7
   0   0   6 138399. 4549.41   9
   0   0   7-170.244 219.371   7
   0   0   7 341.720 334.698   9
   0   0  -7 11.9757 83.7426   8
   0   1   1 28.6002 34.2789   2
   0   1   1 25.6582 26.4979   6
   0  -1   1 5.38409 26.5638   6
   0  -1   1 4.06741 47.1661   7
   0  -1  -1 60.4368 24.1994   4
   0  -1   1 27.8309 22.4592   2
   0  -1   1 39.4121 21.2435   4
   0   1   1 36.7645 9.61997   7
   0   1   2 1738.03 291.244   2
   0  -1  -2 921.705 156.552   4
   0  -1   2 379.593 120.896   5
   0  -1  -2 1012.17 300.147   7
   0  -1  -2 1041.37 344.538   2
   0  -1   2 411.121 96.3034   2
   0  -1   2 363.298 136.945   7
   0   1   2 779.310 265.619   6
   0   1   2 1079.12 175.181   5
   0  -1   2 295.988 93.1072   4
   0   1   2 1485.05 356.096   7
   0  -1   2 364.043 126.898   6
   0   1   2 756.784 141.931   4
   0   1   3 49.5960 40.7189   4
   0   1   3-20.2176 60.8080   6
   0  -1   3 119.613 106.365   6
   0  -1   3-18.2238 53.0695   4
   0  -1   3 72.8367 83.5169   7
   0  -1   3-9.67308 53.8447   2
   0   1   3-20.5518 41.1879   7
   0  -1   3 2.01429 48.7335   5
   0   1   3 18.2667 29.4308   5
   0  -1  -3 9.99268 53.8430   2
   0   1   4 3936.72 792.369   6
   0  -1   4 1209.80 433.827   6
   0   1   4 3805.07 763.755   7
   0  -1   4 709.365 294.250   7
   0   1   5 21.0927 119.283   7
   0  -1   5 0.62460 31.0763   9
   0  -1   5 314.874 290.689   6
   0   1   5 2.85857 160.536   6
   0  -1   5 94.4442 125.286   7
   0  -1   5-39.4690 24.8550   4
   0   1   6 1155.25 488.143   6
   0  -1   6 1208.76 443.004   7
   0   1   6 3609.88 830.999   7
   0  -1   6 1050.96 520.064   6
   0  -1   6 949.807 397.794   9
   0   1   6 3415.29 756.482   9
   0  -1   7-278.775 363.074   9
   0   1   7 126.057 205.395   9
   0   1   7-3.57807 157.747   7
   0   1  -7 273.923 258.366   8
   0  -1   7 52.6680 60.0896   7
   0   2   0 2368.44 190.889   8
   0  -2   0 2523.09 163.282   1
   0   2   0 2634.56 165.374   7
   0   2   0 2797.15 170.762   5
   0   2  -1 28.9055 9.33873   6
   0   2   1 115.724 47.0041   2
   0  -2   1 147.543 66.5460   6
   0   2   1 105.819 62.4659   7
   0   2   1 173.313 62.5164   6
   0   2  -1 57.3899 38.5686   8
   0  -2  -2 7057.19 561.840   2
   0   2   2 3725.66 417.244   6
   0   2   2 3200.62 441.603   7
   0  -2  -2 6056.60 473.133   6
   0   2   2 3059.66 215.125   5
   0  -2   2 3592.90 321.464   2
   0  -2   2 3306.66 355.071   5
   0  -2   2 3385.16 394.391   6
   0  -2   2 3836.48 431.515   7
   0   2   2 3992.12 416.465   2
   0  -2   2 3118.28 299.716   4
   0  -2  -2 6243.86 333.857   4
   0  -2  -2 6738.18 661.717   7
   0  -2   3 581.529 151.091   2
   0   2   3 564.416 217.130   7
   0   2   3 473.991 188.147   6
   0  -2   3 475.582 134.629   4
   0  -2   3 522.164 197.694   6
   0  -2   3 559.617 190.541   7
   0   2   3 375.716 99.4260   5
   0  -2  -3 379.757 109.725   4
   0  -2   4 11845.3 987.793   7
   0   2   4 11754.2 1177.08   7
   0   2   4 11617.1 1206.39   6
   0   2   4 10000.2 636.236   5
   0  -2   4 12028.5 1171.97   6
   0  -2   5 320.853 152.279   4
   0  -2   5 511.816 232.021   9
   0  -2   5 1249.57 462.592   6
   0   2   5 885.003 379.941   7
   0  -2   5 446.731 196.685   7
   0   2   5 728.856 346.327   6
   0   2   6 12001.8 1344.94   9
   0  -2   6 14759.1 1390.51   7
   0  -2   6 12796.0 1040.53   4
   0  -2   6 12089.6 1609.80   6
   0   2   6 13129.1 1593.93   7
   0   2  -6 16812.2 1672.83   8
   0   2   6 9045.39 1414.67   6
   0  -2   6 12340.5 1372.48   9
   0   2   7 702.009 402.203   7
   0  -2   7 720.193 502.102   6
   0   2  -7 163.175 152.752   8
   0  -2   7 1023.52 500.302   9
   0   3   0-3.35184 12.7146   1
   0   3   0 67.0761 57.5729   8
   0   3   0-23.8724 17.8982   5
   0   3   0-27.9181 39.6304   7
   0  -3   0 13.9569 27.4389   1
   0   3   0 4.08276 12.4026   9
   0   3   1 6.43170 22.1697   2
   0   3  -1 73.1628 42.5814   3
   0   3  -1-4.34200 16.0892   8
   0  -3   1-13.8110 19.2281   6
   0  -3  -1 36.1345 29.2418   1
   0   3  -1 24.8346 15.2474   1
   0   3  -1-1.33387 33.5786   6
   0   3   1 39.1237 43.5245   6
   0  -3  -1 31.4394 26.8163   6
   0   3   1-37.7073 53.1380   7
   0   3   2 48.6993 18.7266   5
   0   3   2 110.150 50.6535   6
   0   3  -2 145.453 121.627   6
   0  -3  -2-45.1660 89.9056   7
   0  -3   2 160.991 80.1012   2
   0   3   2 55.9751 34.5641   2
   0   3  -2 87.7327 49.3452   8
   0  -3   2 138.159 83.9562   6
   0  -3   2 27.7759 36.4080   7
   0  -3  -2 131.209 54.5503   6
   0   3   2 98.5152 91.7699   7
   0  -3   2 69.5704 61.2514   5
   0  -3   2 108.130 53.6079   4
   0  -3  -2 123.693 52.0858   4
   0  -3  -2 93.5606 59.9421   2
   0   3   3 114.342 129.901   6
   0  -3   3 13.1810 25.7497   7
   0   3   3 42.9955 66.0496   7
   0  -3  -3 34.5361 24.8485   4
   0   3   3-1.75494 10.1846   5
   0  -3   3 16.0414 34.6182   2
   0   3  -3 119.223 104.903   8
   0  -3   3-56.2814 85.0319   6
   0  -3   4 50.5369 33.1945   4
   0   3   4-4.95626 119.636   6
   0   3   4-31.6725 75.1046   7
   0  -3   4 19.2622 62.7743   2
   0   3   4-15.6310 55.3390   5
   0  -3   4 159.539 167.168   6
   0   3  -4 83.4808 151.161   8
   0  -3   4 124.661 115.773   7
   0  -3  -4 80.2176 176.512   2
   0   3   5 117.341 96.4994   7
   0  -3   5 162.734 117.871   6
   0   3  -5 233.138 235.455   8
   0   3   5-84.3952 33.3542   6
   0  -3   5 40.2834 77.7586   7
   0  -3   5 305.278 190.823   9
   0  -3   5 81.5462 99.6035   4
   0   3   6 404.618 361.310   7
   0  -3   6-20.1747 137.121   7
   0  -3   6 3.57136 142.337   9
   0   3   6 328.451 307.208   6
   0  -3   6 221.715 330.167   6
   0  -3   6 370.155 227.159   4
   0   3   6 13.7975 177.248   9
   0   3  -6 53.8719 168.090   8
   0   3   7 15.4829 159.737   9
   0  -3   7-131.908 170.410   6
   0  -3   7 474.275 350.722   9
   0   3   7-175.761 355.346   7
   0   3  -7 108.805 252.314   8
   0  -4   0 11195.8 487.657   1
   0  -4   0 10921.0 495.650   7
   0   4   0 10600.4 458.870   5
   0   4   0 11138.6 385.978   9
   0   4   0 11087.6 479.172   7
   0   4   0 10421.9 472.022   1
   0  -4   0 11351.9 548.039   5
   0  -4   0 11076.1 412.388   2
   0   4   0 11006.0 588.150   8
   0   4  -1 100.934 30.5647   1
   0   4  -1 118.050 53.2521   3
   0   4  -1 177.591 79.3554   8
   0  -4   1 73.2884 36.7196   6
   0  -4   1 96.0699 51.1292   3
   0  -4   1 94.7572 24.3773   7
   0  -4  -1 89.5342 41.0473   6
   0   4   1 133.054 66.3445   7
   0  -4  -1 48.2704 41.0735   1
   0   4  -1-53.0726 73.9982   6
   0   4   1 104.414 26.7863   5
   0  -4  -1 151.661 46.7567   5
   0   4   1 123.256 36.8058   2
   0  -4   1 101.121 52.1404   9
   0   4   2 1978.96 378.285   7
   0  -4   2 2016.41 382.629   7
   0  -4   2 2574.30 292.364   2
   0   4  -2 841.272 180.476   3
   0   4  -2 1143.94 299.653   6
   0  -4   2 2109.42 324.599   5
   0  -4   2 2491.85 341.420   6
   0   4  -2 736.081 199.978   8
   0  -4  -2 837.449 174.019   6
   0   4   2 2667.30 359.801   6
   0  -4   3 413.646 183.398   6
   0   4  -3 152.389 124.064   8
   0  -4   3 318.542 139.347   7
   0   4   3 404.979 193.117   6
   0  -4  -3 254.924 74.7149   4
   0   4   3 178.208 52.8225   5
   0   4   3 113.254 72.6449   7
   0  -4   3 348.081 95.3656   2
   0   4   4 10688.9 1157.15   6
   0   4  -4 14700.9 1204.54   8
   0  -4   4 11011.3 952.591   9
   0  -4   4 10256.5 788.677   4
   0  -4   4 11094.1 835.978   7
   0  -4   4 10977.2 1079.49   6
   0  -4  -4 15317.7 754.546   4
   0   4   4 9870.89 524.164   5
   0  -4  -4 12835.1 1229.72   2
   0   4   4 12035.6 1273.56   7
   0  -4   4 10651.2 627.209   2
   0  -4   5 725.747 288.448   9
   0   4  -5 710.034 275.583   8
   0  -4   5 559.388 221.131   4
   0  -4   5 518.722 209.086   7
   0   4   5 689.747 362.628   6
   0   4   5 620.637 312.655   7
   0  -4   5 834.870 366.144   6
   0  -4   6 6755.78 783.499   4
   0   4  -6 10099.3 1302.40   8
   0  -4   6 6657.97 1171.73   6
   0  -4   6 7601.13 1088.74   9
   0  -4   6 7831.43 868.788   7
   0   4   6 7368.03 1034.89   9
   0   4   6 7448.67 1281.56   7
   0  -4   7 364.259 181.619   4
   0   4   7 593.891 348.389   9
   0   4   7 856.602 490.985   7
   0  -4   7 396.262 230.198   9
   0   4  -7 262.508 178.579   8
   0  -4   7 638.623 412.206   6
   0  -5   0 10.3565 28.6497   2
   0   5   0 5.69941 23.4550   1
   0  -5   0-63.8010 46.0951   1
   0   5   0 13.6439 26.6193   7
   0  -5   0-25.6786 31.6058   7
   0   5   0 9.86204 57.2444   5
   0  -5   0 2.20475 28.7875   5
   0   5   0 11.0046 57.9358   8
   0   5   0-3.21346 22.2374   9
   0  -5   1 29.1272 8.85635   3
   0  -5  -1 27.4724 28.2338   1
   0  -5  -1 36.9720 37.2840   5
   0  -5   1 12.1258 21.8602   1
   0   5   1 75.9468 50.5957   2
   0   5   1 20.0651 58.2012   7
   0  -5   1 4.93461 27.8426   6
   0   5  -1 116.672 180.130   6
   0  -5  -1-5.38781 13.2543   6
   0   5   1 35.6108 8.32622   5
   0  -5   1-20.3479 42.3261   8
   0   5  -1 11.1534 27.5322   1
   0   5  -1-3.41673 56.9537   8
   0  -5   1-30.0953 33.1468   9
   0  -5   1 0.65415 8.08624   7
   0   5  -1 14.3520 33.9910   3
   0   5  -2 44.7294 45.4458   8
   0   5   2 104.857 68.3047   6
   0   5  -2 281.785 199.285   6
   0   5  -2 100.396 33.5816   1
   0  -5   2 21.4359 35.7723   9
   0   5   2 151.782 100.681   7
   0  -5  -2 203.630 91.3959   6
   0  -5   3 89.6029 85.9726   9
   0   5   3-50.7979 143.313   7
   0   5   3 87.5746 68.5616   6
   0  -5   3-32.2664 74.0183   6
   0  -5  -3-35.7751 52.7554   4
   0  -5  -3 21.2758 69.6683   2
   0  -5   3 25.2585 24.4991   2
   0   5  -3-49.8079 39.3786   8
   0  -5   3 56.1179 59.6050   7
   0  -5  -4 264.618 193.836   2
   0   5   4 535.768 279.756   6
   0  -5   4 579.045 205.984   4
   0  -5  -4 260.785 86.9881   4
   0  -5   4 976.467 387.651   6
   0  -5   4 495.781 157.311   7
   0   5  -4 289.484 205.591   8
   0  -5   4 249.844 53.5387   2
   0  -5   4 339.640 199.700   9
   0   5   4 461.991 97.2459   5
   0   5   4 486.136 301.779   7
   0  -5   5 47.8891 89.2101   9
   0   5   5 102.700 88.5936   7
   0  -5   5 20.8376 45.9880   6
   0   5  -5 359.905 216.596   8
   0  -5   5-22.5792 65.9182   4
   0   5   5 85.8766 146.265   6
   0  -5   5 81.5151 79.3004   7
   0  -5   6 1697.33 584.334   9
   0  -5   6 1921.87 735.481   6
   0   5  -6 1028.04 492.786   8
   0  -5   6 1205.74 380.587   4
   0  -5   6 642.941 216.493   7
   0   5   6 1100.77 546.155   7
   0   5   6 912.534 345.965   9
   0   5  -7-131.451 213.134   8
   0  -5   7-9.04565 95.7238   4
   0   5   7 472.893 384.553   7
   0  -5   7 243.983 347.507   6
   0   5   7 154.453 161.673   9
   0  -5   7 175.218 156.011   9
   0   6   0 417324. 2855.67   9
   0   6   0 414291. 3546.95   7
   0  -6   0 428640. 4427.98   8
   0   6   0 403430. 4520.71   8
   0   6   0 416701. 3747.91   1
   0  -6   0 418970. 3718.33   1
   0  -6   0 455841. 3400.30   2
   0   6   0 408149. 3487.50   5
   0  -6   0 441940. 3903.51   7
   0   6   1 58.1477 62.5155   7
   0  -6   1 32.6610 32.6713   7
   0  -6   1 14.9096 34.2842   8
   0   6  -1 31.5739 19.2595   7
   0   6   1-28.9664 39.7602   2
   0   6  -1-24.8864 16.2559   1
   0  -6   1 19.4330 12.0697   1
   0  -6   1 20.3514 34.2526   6
   0   6  -1 10.9597 13.5077   8
   0   6   1 26.1488 23.4211   5
   0  -6  -1 49.8039 65.7345   5
   0   6  -1 38.5022 36.8611   3
   0  -6   1 5.05664 25.4589   3
   0  -6   1-20.1854 15.6171   9
   0   6  -1 70.8245 19.7521   6
   0  -6  -1-0.92889 27.2692   1
   0  -6  -1 25.4689 19.7159   6
   0  -6  -2 363393. 3561.75   6
   0  -6   2 384856. 4190.04   6
   0  -6   2 378371. 4434.12   9
   0   6  -2 403267. 7977.56   6
   0   6  -2 408483. 5037.48   8
   0   6   2 419106. 6010.63   7
   0  -6  -3 55.0944 47.6259   4
   0  -6   3-41.3232 93.5358   6
   0  -6   3 0.56921 19.8766   2
   0  -6  -3 106.040 112.999   2
   0  -6   3 34.3587 90.4108   4
   0  -6   3-133.456 93.5301   9
   0  -6   3-9.13166 16.6499   7
   0   6   3 15.2657 103.955   7
   0   6  -3-45.0096 58.9829   8
   0   6   3-23.9185 35.0620   6
   0   6   4 213100. 5240.15   6
   0   6   4 236058. 6172.63   7
   0  -6   4 236847. 3159.24   7
   0  -6   4 237357. 4942.92   6
   0  -6   4 227039. 4051.01   4
   0  -6   4 226981. 4539.38   9
   0  -6  -4 225902. 2932.07   4
   0  -6  -4 210226. 4978.18   2
   0   6  -4 239034. 5086.58   8
   0  -6   5-22.1188 82.0872   4
   0  -6   5 136.429 201.610   6
   0   6  -5 20.7870 114.830   8
   0  -6   5-184.954 208.508   9
   0   6   5 122.266 36.6416   7
   0  -6   5 85.6753 91.2782   7
   0   6  -6 133440. 4841.34   8
   0   6   6 143653. 4497.41   9
   0   6   6 128506. 5677.33   7
   0  -6   6 155548. 5590.83   6
   0  -6   6 142342. 4758.67   9
   0  -6   6 125718. 3560.74   4
   0  -6   7 197.252 167.678   6
   0  -6   7-165.799 205.078   9
   0  -6   7-1.35312 43.4570   4
   0   6   7 22.0258 174.996   9
   0   6   7 6.86282 31.1702   7
   0   6  -7-115.483 62.3696   8
   0   7   0-6.15686 33.4003   1
   0  -7   0 35.1147 45.5160   8
   0  -7   0-12.9143 58.4984   5
   0  -7   0 66.5568 43.9048   2
   0   7   0 12.0959 20.5374   7
   0  -7   0 52.9284 45.5178   1
   0   7   0-40.1228 35.2684   8
   0  -7   0-11.9972 53.1849   7
   0   7  -1 8.70054 22.0524   3
   0   7  -1 29.0595 41.1543   1
   0  -7  -1 72.7765 39.7270   5
   0  -7   1 61.4258 51.1897   3
   0  -7  -1 43.3360 44.9559   2
   0  -7   1 23.0374 23.2302   2
   0  -7  -1 1.73117 23.4098   6
   0  -7   1-4.24929 10.7649   6
   0  -7   1 31.0930 19.4788   1
   0  -7   1-1.55833 25.7374   7
   0  -7   1 64.7540 55.6475   8
   0  -7   1-4.16336 15.6731   9
   0   7   1 6.33687 30.3383   7
   0   7  -1 27.5038 50.7246   8
   0   7  -1 35.3579 53.4176   6
   0   7   1-23.1174 152.966   8
   0   7  -1 15.4019 10.1439   7
   0   7  -2 633.916 217.119   8
   0   7  -2 466.519 80.4959   1
   0  -7  -2 584.791 148.016   6
   0  -7   2 639.795 88.0100   7
   0  -7   2 513.676 164.303   9
   0  -7   2 837.398 212.025   6
   0   7  -2 42.4714 71.7653   6
   0   7   2 526.237 183.925   7
   0  -7   3 44.4641 4.76005   4
   0   7  -3 4.85136 18.5739   1
   0   7   3 45.1200 66.2291   7
   0  -7   3-9.49167 60.9670   6
   0   7  -3 2.02040 74.8316   8
   0  -7   3-134.452 148.605   9
   0  -7  -3-54.2485 119.324   2
   0  -7   3-22.4773 42.7259   7
   0  -7   4 917.038 159.151   7
   0   7  -4 1028.45 336.628   8
   0  -7  -4 1455.03 465.870   2
   0  -7   4 726.274 249.155   9
   0  -7   4 776.153 301.434   6
   0   7   4 1053.52 405.187   7
   0  -7   4 1042.32 283.188   4
   0  -7  -4 943.690 184.632   4
   0   7   5 265.902 244.269   7
   0  -7   5 50.8188 122.596   4
   0  -7  -5-48.0767 98.8329   2
   0   7   5 80.6923 111.721   9
   0  -7   5-12.7986 139.428   9
   0  -7   5-72.5043 90.8379   7
   0  -7   5 126.241 231.257   6
   0   7  -5 179.541 175.742   8
   0   7   6 815.077 354.222   9
   0   7  -6 679.695 362.045   8
   0  -7   6 660.946 356.949   6
   0  -7   6 842.026 288.907   4
   0   7   6 1233.36 613.371   7
   0  -7   6 854.799 388.747   9
   0   7  -7 33.7152 135.334   8
   0  -7   7 159.352 365.092   6
   0  -7   7-239.844 201.232   4
   0   7   7 384.762 370.562   7
   0  -7   7-143.250 179.177   9
   0  -8   0 1419.28 250.386   1
   0   8   0 1694.70 255.347   7
   0   8   0 1650.52 342.373   8
   0  -8   0 1678.39 280.583   7
   0  -8   0 1789.51 258.191   2
   0  -8   0 1822.73 346.472   5
   0  -8   1 0.48944 8.89187   2
   0   8   1-55.3896 81.5262   7
   0  -8  -1 15.2312 47.8127   2
   0   8  -1 33.6365 45.2358   1
   0  -8  -1 18.5433 14.4830   6
   0   8  -1-59.4196 67.8384   6
   0  -8   1 3.10223 48.4059   7
   0   8  -1 16.3018 34.9692   8
   0   8  -1-28.1339 12.6471   7
   0   8   1 34.2192 149.110   8
   0  -8   1-5.25523 53.5851   3
   0  -8   1-28.0505 41.1998   6
   0  -8   1 3.12975 20.6253   1
   0  -8  -1 50.3646 70.6752   5
   0  -8   2 20241.2 446.765   2
   0   8  -2 24718.2 1364.22   8
   0  -8   2 21874.7 1130.20   9
   0  -8   2 21385.8 1065.98   3
   0  -8   2 20590.8 578.495   7
   0   8  -2 22264.8 641.145   1
   0   8  -2 18559.5 2178.74   6
   0   8   2 23697.4 1554.94   7
   0  -8  -2 21042.3 849.141   6
   0  -8   2 19365.0 911.788   6
   0  -8   3 195.066 118.494   9
   0  -8   3 134.691 43.4238   7
   0   8   3 154.580 187.547   7
   0   8  -3 120.363 42.0442   1
   0   8  -3 85.3601 51.2875   8
   0  -8   3 192.214 132.917   4
   0  -8   3 10.3995 58.9623   6
   0  -8  -3 39.4679 37.3412   2
   0  -8   3 131.652 36.0461   7
   0   8  -4 24899.2 1714.07   8
   0   8  -4 23849.7 650.765   1
   0  -8  -4 22080.0 963.463   4
   0  -8  -4 24068.4 1750.22   2
   0  -8   4 17327.8 561.238   7
   0  -8   4 17032.6 1288.61   6
   0   8  -4 24159.3 609.860   1
   0  -8   4 16245.5 1178.13   4
   0   8   4 17463.2 1792.54   7
   0  -8   4 16628.0 1292.13   9
   0  -8   5 67.2006 91.2674   4
   0  -8  -5-19.7711 98.2326   2
   0   8  -5 136.447 181.225   8
   0  -8   5 536.625 260.565   9
   0  -8   5 336.813 279.106   6
   0   8   5 238.074 215.290   7
   0   8   5 200.831 141.718   9
   0   8  -6 16329.5 1719.89   8
   0  -8   6 16058.6 1725.91   6
   0   8   6 12183.1 1863.29   7
   0  -8   6 13241.7 1234.60   4
   0   8   6 12472.4 1274.38   9
   0  -8   6 13785.1 1485.90   9
   0   8  -7 231.611 282.191   8
   0  -8   7 144.358 103.842   4
   0   8   7 513.500 460.624   7
   0  -8   7 508.957 396.892   6
   0  -9   0 132.804 127.436   5
   0   9   0 17.4868 40.0065   7
   0  -9   0 43.0102 18.9274   7
   0  -9   0-0.66754 4.95109   2
   0  -9   0 48.7345 31.7555   1
   0   9   0-64.2666 81.9659   8
   0   9  -1 0.79617 36.3414   6
   0   9   1 36.8048 29.4743   9
   0  -9  -1 77.1089 70.4827   2
   0   9  -1-39.2008 62.2891   1
   0  -9   1 8.72400 55.6014   3
   0   9  -1-6.57454 33.7863   7
   0   9  -1-46.9375 107.188   8
   0   9   1-57.5908 54.6710   7
   0   9   1-217.659 182.790   8
   0  -9   1 30.2893 16.9286   6
   0  -9   1 9.97646 33.3384   1
   0  -9   1 0.48675 36.8758   2
   0  -9   1 70.6162 56.7246   7
   0  -9  -1 3.43074 53.4126   5
   0  -9  -1 9.91858 13.9890   6
   0   9  -2 59.3575 292.519   6
   0  -9   2 22.0260 24.6281   3
   0  -9   2 9.71760 14.7067   2
   0  -9   2-48.1634 60.3799   9
   0  -9  -2 53.1993 92.3863   2
   0   9  -2 29.1745 30.8516   1
   0   9  -2-49.1007 76.6963   8
   0  -9   2-8.52019 15.6539   7
   0   9   2-33.3376 52.3679   7
   0  -9   2 38.9614 54.0920   6
   0  -9  -2 88.0255 74.3877   5
   0  -9  -2 30.7259 28.9943   6
   0  -9   3 92.6997 34.9569   4
   0  -9   3 45.3302 40.2655   6
   0  -9  -3 22.1801 38.6939   2
   0  -9   3-36.2024 97.3904   9
   0   9  -3-15.4442 145.488   8
   0   9   3 115.962 192.555   7
   0   9  -3 28.4084 20.8810   1
   0  -9  -4 13.1516 207.756   2
   0  -9   4 323.109 188.643   9
   0  -9   4 128.305 134.679   4
   0  -9   4 162.694 139.307   6
   0   9   4-105.307 246.002   7
   0  -9  -4 162.129 88.4968   4
   0   9  -4 185.086 146.061   8
   0  -9   5-97.6113 171.508   4
   0   9   5 28.7821 29.0098   9
   0  -9   5 78.6268 52.9189   6
   0   9   5-125.452 322.818   7
   0   9  -5-29.7120 87.9232   8
   0  -9  -5-203.493 275.719   2
   0  -9   5 36.8224 47.2938   9
   0  -9   6 23.8106 98.6438   9
   0  -9   6 254.027 192.936   4
   0   9   6 81.3539 118.753   7
   0  -9   6 594.855 360.753   6
   0   9  -6 412.827 224.682   8
   0   9  -7 212.801 274.704   8
   0   9   7 236.165 220.616   7
   0  -9   7 28.5114 65.3529   4
   0 -10   0 20062.3 945.024   2
   0  10   0 19386.7 975.833   7
   0  10   0 19765.3 1376.63   8
   0 -10  -1 16.2361 57.5656   5
   0  10  -1 196.620 86.4736   7
   0  10   1 140.289 109.177   8
   0 -10  -1 71.3547 74.6841   2
   0 -10  -1 111.001 41.5772   6
   0 -10   1 98.6743 50.7527   2
   0 -10   1 39.9289 53.3432   1
   0 -10   1 127.420 75.0259   3
   0  10   1 97.4029 45.2618   9
   0 -10   1 118.125 51.4353   6
   0  10   1 27.3946 94.4462   7
   0  10  -1-37.4812 106.021   8
   0  10  -1 204.795 83.5775   6
   0 -10   1 71.6675 59.9067   7
   0  10  -2 26650.2 1534.34   8
   0 -10   2 25460.4 1303.01   9
   0 -10  -2 25183.1 1375.32   2
   0  10  -2 23148.6 1864.03   6
   0  10   2 25748.5 1733.97   7
   0 -10   2 24281.4 1247.50   3
   0 -10   2 24091.7 664.868   2
   0 -10   2 21425.8 937.731   6
   0 -10  -2 24015.0 1038.93   5
   0  10  -2 22242.8 773.276   1
   0 -10  -2 20047.0 826.221   6
   0 -10   2 21272.1 727.043   7
   0 -10   3 130.557 104.185   6
   0 -10  -3 263.541 154.815   2
   0  10  -3 267.093 204.968   8
   0 -10   3 233.388 141.754   9
   0  10   3 539.678 349.883   7
   0 -10   4 11702.8 1055.37   6
   0 -10   4 11634.5 1129.75   9
   0 -10  -4 10850.4 1238.90   2
   0  10   4 11150.0 1513.87   7
   0  10  -4 11638.1 1219.95   8
   0 -10   4 11544.0 1067.22   4
   0 -10   5 632.965 261.448   6
   0  10   5 314.785 252.807   7
   0  10   5 468.984 207.811   9
   0 -10  -5 195.416 255.124   2
   0 -10   5 232.391 103.302   4
   0  10  -5 276.392 136.564   8
   0 -10   5 321.466 169.053   9
   0 -10   6 11825.5 1246.39   4
   0  10   6 9699.29 1743.26   7
   0 -10   6 13124.8 1479.31   9
   0  10  -6 12154.4 1512.72   8
   0 -10   6 13251.4 1537.37   6
   0 -11   0 53.0627 21.3021   2
   0 -11   0 12.9527 49.5730   3
   0  11   0 7.42392 40.5248   7
   0 -11  -1 11.1622 37.5788   2
   0  11   1 55.7468 140.423   8
   0 -11  -1-59.1656 40.5256   5
   0 -11  -1-42.7323 32.7482   6
   0  11  -1 133.731 97.7831   8
   0 -11   1 46.5147 63.6831   1
   0  11  -1-20.1567 42.1384   7
   0 -11   1 30.2126 27.0055   2
   0 -11   1 34.1823 2.10512   6
   0 -11   1 11.0126 60.1446   3
   0  11   1-30.0748 80.3142   7
   0 -11   1 53.2697 37.4764   7
   0 -11  -2 180.208 172.682   2
   0 -11   2 17.9898 37.5983   7
   0 -11   2 38.5939 64.0882   6
   0  11   2 26.1001 40.5975   7
   0 -11   2-25.6676 37.1964   2
   0  11   2 4.89627 12.5897   9
   0  11  -2-147.106 192.065   8
   0  11  -2 43.4606 61.6612   6
   0 -11  -2 9.07014 17.9607   6
   0 -11  -2 87.6959 83.0520   5
   0 -11   2-32.5253 27.4403   3
   0  11  -3-52.3945 137.298   8
   0  11   3-108.563 21.9600   7
   0 -11  -3-39.3392 125.816   2
   0 -11   3 87.2486 104.192   9
   0 -11   3-10.1928 21.9346   6
   0 -11   4 874.389 325.455   4
   0  11  -4 454.120 267.888   8
   0 -11   4 459.644 200.509   9
   0  11   4 589.871 354.458   7
   0 -11   4 259.200 147.685   6
   0  11   4 529.055 148.308   9
   0 -11  -4 114.797 163.817   2
   0  11   5 150.434 283.032   7
   0 -11   5 20.8578 38.0959   4
   0 -11  -5 137.134 259.045   2
   0  11  -5 49.8486 84.6889   8
   0 -11   5 14.6550 58.7857   6
   0 -11   5-84.1089 140.720   9
   0  11   6 712.493 442.012   7
   0 -11   6 534.509 306.763   6
   0  11  -6 268.722 191.644   8
   0 -11   6 442.941 247.997   4
   0  12   0 291170. 5973.18   8
   0 -12   0 292950. 3986.45   2
   0 -12  -1 8.83829 20.8617   6
   0 -12   1 14.7079 3.15292   6
   0 -12   1 79.3593 84.9733   7
   0 -12   1 46.7580 41.8168   2
   0 -12  -1 6.40782 37.8068   2
   0 -12   1-78.3709 108.022   3
   0 -12  -1-3.69239 9.76309   6
   0  12  -1 156.726 89.3169   8
   0  12   1-143.579 282.009   8
   0  12   1 57.9467 103.675   7
   0  12  -1-61.9720 57.5297   7
   0 -12   2 201139. 3861.38   3
   0 -12   2 196895. 2797.95   6
   0 -12   2 207851. 2437.17   2
   0  12   2 220891. 5385.74   7
   0  12  -2 194637. 3697.17   6
   0  12  -2 207380. 4605.34   8
   0 -12  -2 204614. 4291.85   2
   0 -12   2 179141. 2570.30   7
   0 -12  -2 215062. 3738.26   5
   0 -12  -3 57.3085 129.341   2
   0  12   3-24.6428 167.887   7
   0 -12   3 84.0904 73.4752   6
   0  12  -3 122.219 161.021   8
   0 -12  -4 154353. 4969.54   2
   0  12  -4 161678. 4798.51   8
   0  12   4 162845. 6132.05   7
   0 -12   4 170548. 4387.51   4
   0 -12   4 175814. 4000.68   6
   0  12  -5-57.3215 182.450   8
   0 -12   5 88.7232 123.392   4
   0  12   5 113.162 89.3860   7
   0 -12  -5-117.867 94.9360   2
   0 -12   5 14.2311 15.8326   6
   0  12  -6 83429.0 4064.52   8
   0 -12   6 83946.7 3604.02   4
   0 -12   6 93408.7 3906.13   6
   0 -13   0 91.7612 98.1976   2
   0  13   0 167.886 227.821   8
   0  13   0 102.732 75.4827   7
   0 -13   0 6.71630 104.648   3
   0  13   1 71.0162 90.5340   7
   0  13  -1 126.901 95.3039   7
   0  13  -1-101.656 138.754   8
   0 -13   1-51.1626 40.0708   6
   0 -13   1 3.76621 73.3255   3
   0 -13   1-9.11652 27.9837   2
   0  13   1-45.4873 179.332   8
   0 -13  -1-13.7943 105.217   2
   0 -13  -2 144.058 66.5054   6
   0  13  -2 331.301 176.310   8
   0 -13  -2 411.556 168.515   5
   0 -13   2 401.830 113.851   2
   0 -13   2 203.268 150.220   3
   0  13   2 478.249 228.039   7
   0 -13  -2 151.500 140.031   2
   0 -13   2 376.222 128.966   7
   0 -13   2 343.754 102.488   6
   0 -13  -3-17.4566 40.7294   2
   0 -13   3-31.8027 58.4646   6
   0  13  -3 25.6969 88.9046   8
   0 -13   4 587.556 274.704   4
   0  13   4 901.064 504.594   7
   0 -13  -4 1373.20 521.306   2
   0  13  -4 500.827 245.989   8
   0 -13   4 743.660 271.145   6
   0  13  -5 24.8728 55.7114   8
   0 -13   5 70.4572 78.1256   6
   0 -13  -5-1.33507 64.1727   2
   0 -13   5-135.598 214.800   4
   0  13   5 40.0753 187.006   7
   0 -13   6 460.827 275.095   6
   0  13  -6 426.445 163.938   8
   0 -13   6 437.281 189.431   4
   0  13   6 201.597 170.323   7
   0  14   0 25250.8 1970.62   8
   0  14   0 24483.4 1322.12   7
   0 -14   0 26515.9 1763.11   3
   0 -14   0 24120.9 1256.27   2
   0 -14   1 17.2087 87.6023   3
   0  14  -1 8.41442 25.0043   7
   0 -14   1-7.26628 29.3644   2
   0  14   1-12.6216 142.149   7
   0  14   1-130.255 365.725   8
   0 -14  -1 127.356 132.916   2
   0  14  -1-131.967 196.959   8
   0 -14   2 14426.7 819.170   2
   0  14  -2 15972.3 1400.11   8
   0 -14  -2 14893.2 1261.92   2
   0 -14   2 14758.2 749.294   6
   0  14   2 14352.1 1443.58   7
   0 -14   2 13382.8 1083.43   3
   0  14   3 307.854 249.867   7
   0  14  -3 464.621 296.419   8
   0 -14  -3 158.628 169.408   2
   0 -14   3 133.346 73.7124   6
   0 -14  -4 15360.5 1675.15   2
   0 -14   4 15119.9 1145.48   6
   0  14  -4 15892.2 1556.99   8
   0 -14   4 16005.4 1433.92   4
   0  14   4 14203.2 1877.44   7
   0 -14   5 291.943 188.281   6
   0  14  -5 409.002 347.887   8
   0  14   5-39.1097 236.230   7
   0 -14   5 186.907 215.398   4
   0 -14  -5 209.343 194.394   2
   0  14  -6 18474.9 1965.13   8
   0 -14   6 13041.5 1486.03   4
   0 -15   0 130.901 181.509   3
   0 -15   0 88.2377 106.184   2
   0  15   0 31.2317 65.4142   7
   0  15   0-85.6404 150.691   8
   0  15  -1 62.2852 85.5350   7
   0 -15  -1 77.3506 49.0789   2
   0  15   1 9.52482 205.343   8
   0 -15   1-68.5463 71.3610   3
   0 -15   1-19.6293 60.2457   2
   0  15   1-7.29831 28.1705   7
   0  15  -1 136.800 182.568   8
   0 -15   2-85.6548 91.5053   2
   0 -15   2-19.9054 39.5601   6
   0 -15  -2-28.0422 153.193   2
   0  15  -2 75.0491 91.2329   8
   0 -15   2-44.5301 31.5839   3
   0  15   2 119.219 102.102   7
   0  15   3-101.692 124.928   7
   0  15  -3 13.4415 92.5379   8
   0 -15   3-27.7287 34.4904   6
   0 -15   3-0.68522 12.4488   4
   0 -15  -3-4.24076 99.8609   2
   0 -15   4 635.608 247.551   6
   0  15  -4 139.433 122.787   8
   0 -15  -4 241.694 141.143   2
   0  15   4-125.169 164.523   7
   0 -15   4 256.039 234.527   4
   0  15   5-25.7564 141.805   7
   0  15  -5 18.1407 84.5045   8
   0 -15   5-35.9630 180.822   4
   0 -15   5 71.8340 37.2448   6
   0 -15  -5 81.1917 187.735   2
   0  16   0 30692.9 1600.39   7
   0  16   0 30707.0 2424.67   8
   0 -16   0 30781.2 2055.64   3
   0 -16   0 31184.6 1603.12   2
   0 -16   1-14.5974 48.5863   2
   0  16   1 44.9485 54.2342   7
   0 -16   1-32.6792 149.301   3
   0  16   1 283.610 301.457   8
   0 -16  -1 177.466 126.094   2
   0  16  -1 46.3977 121.125   8
   0  16  -1-26.8203 39.2614   7
   0  16   2 21287.3 1846.97   7
   0  16  -2 22416.4 1786.17   8
   0 -16   2 19885.9 1436.96   3
   0 -16   2 22281.2 1296.69   2
   0 -16  -2 21608.1 1651.91   2
   0  16   3 556.316 357.688   7
   0 -16  -3 620.526 334.065   2
   0 -16   3 121.918 175.247   4
   0 -16   3 194.728 102.327   6
   0  16  -3 260.855 183.248   8
   0 -16  -4 20550.7 2065.39   2
   0  16   4 19483.3 2355.52   7
   0 -16   4 25245.4 1447.59   6
   0 -16   4 23797.7 1860.47   4
   0  16  -4 21655.3 1883.34   8
   0 -16   5 149.247 207.430   4
   0  16  -5 197.380 157.251   8
   0 -17   0 292.605 157.858   2
   0  17   0 313.029 347.127   8
   0 -17   0 388.081 240.693   3
   0  17   0 280.680 161.227   7
   0  17   1 39.0232 46.5156   7
   0 -17   1 2.80647 110.798   2
   0  17  -1 107.301 192.508   8
   0 -17   1-108.484 198.289   3
   0  17  -1 27.6476 84.6426   7
   0 -17  -1-13.6984 109.580   2
   0  17   2 40.5282 171.314   7
   0 -17  -2-104.201 124.845   2
   0  17  -2-34.2493 83.4933   8
   0 -17   2 330.139 247.033   3
   0 -17   3 66.9487 83.4373   4
   0  17  -3 74.6486 23.6782   8
   0  17   3-90.8926 299.883   7
   0 -17  -3-19.5804 113.885   2
   0 -17  -4 173.628 95.6212   2
   0  17   4-164.441 180.651   7
   0 -17   4-26.2730 216.488   4
   0  17  -4-298.706 315.086   8
   0 -17   5 78.2592 141.858   4
   0  17   5 319.633 398.405   7
   0  17  -5 94.2157 24.9567   8
   0  18   0 115967. 3304.51   7
   0  18   0 119922. 5358.88   8
   0 -18   0 116576. 3487.06   2
   0 -18   0 119745. 4409.26   3
   0  18  -1 43.9767 80.2246   7
   0  18  -1-127.659 312.627   8
   0  18   1-103.810 101.814   7
   0 -18   1-47.3929 100.022   2
   0 -18  -1-22.3571 111.563   2
   0 -18  -1 9.28202 143.740   3
   0 -18   1 6.06516 27.5474   3
   0 -18  -2 93580.9 3838.42   2
   0 -18   2 103183. 3544.21   3
   0  18  -2 124708. 4639.95   8
   0  18   2 123314. 4723.29   7
   0 -18   3-22.8267 125.723   4
   0  18  -3 26.1253 95.7307   8
   0  18   3 132.017 147.023   7
   0 -18  -3-168.910 224.358   2
   0  18  -4 66377.0 3490.52   8
   0 -18  -4 61658.1 3900.96   2
   0  18   4 58259.9 4254.51   7
   0  19   0 46.0167 59.1151   7
   0  19   0 128.943 224.621   8
   0 -19   0 224.309 200.729   3
   0 -19   0 326.670 205.356   2
   0  19  -1-11.5734 86.5421   7
   0 -19  -1 76.8004 212.903   3
   0 -19   1-31.9821 65.7668   3
   0 -19  -1-235.284 237.504   2
   0 -19   1-44.7125 90.4281   2
   0  19  -1 11.9981 175.739   8
   0  19   1 118.151 170.686   7
   0  19   2 539.353 354.196   7
   0 -19   2 395.720 239.386   3
   0 -19  -2 480.905 289.986   2
   0  19  -2 188.104 205.989   8
   0  19   3-212.980 347.761   7
   0 -19  -3 219.495 289.181   2
   0 -19   3-82.6741 93.3685   4
   0  19  -3 301.904 297.632   8
   0  19  -4 577.648 330.482   8
   0 -19   4 103.285 193.521   4
   0  19   4 109.894 156.905   7
   0 -19  -4 259.115 38.9322   2
   0 -20   0 9649.64 1360.95   3
   0 -20   0 9730.89 1153.12   2
   0  20   0 7835.72 1531.33   8
   0  20   0 10331.1 1048.00   7
   0 -20  -1 15.4555 42.1102   2
   0  20   1 69.9569 111.229   7
   0 -20   1-47.8355 69.9139   3
   0 -20  -1 149.777 224.606   3
   0  20  -1 129.344 210.497   8
   0 -20  -2 13185.5 1579.03   2
   0  20  -2 14331.1 1730.07   8
   0  20   2 11805.9 1536.10   7
   0 -20   2 12152.6 1318.26   3
   0  20   3-165.236 295.672   7
   0 -20   3-388.104 342.767   4
   0  20  -3 30.8424 177.314   8
   0 -20  -3 51.3306 98.5902   2
   0  21   0-138.480 165.078   7
   0 -21   0-154.615 266.739   2
   0  21   0 234.469 271.919   8
   0 -21   0 68.7250 116.922   3
   0 -21  -1 46.6963 161.571   3
   0  21  -1 55.3814 262.114   8
   0 -21  -1-121.986 186.977   2
   0 -21   1 199.642 168.037   3
   0  21   1 60.1101 170.716   7
   0 -21   2 137.267 147.147   3
   0 -21  -2-175.277 148.729   2
   0  21   2 190.176 264.032   7
   0 -21  -2 60.0743 94.1147   3
   0  21  -2-159.186 252.143   8
   0 -21   2-49.3417 169.654   4
   0  21   3-273.949 108.849   7
   0 -21  -3-4.39323 144.501   2
   0  21  -3-103.157 144.581   8
   0 -21   3 29.7873 30.5590   4
   0 -22   0 17488.2 1713.29   2
   0 -22   0 20256.5 2110.73   3
   0  22   0 19427.4 2571.90   8
   0  22  -1 51.4352 163.894   8
   0 -22   1 315.198 313.461   3
   0 -22  -1-14.8756 206.845   2
   0 -22  -1 64.6764 73.1344   3
   0  22   1-108.682 187.622   7
   0  22  -2 28827.9 2680.81   8
   0 -22   2 30073.1 2386.24   4
   0 -22  -2 24186.4 2347.61   2
   0 -22   2 27981.5 2185.55   3
   0  22   2 26889.7 2450.63   7
   0  23   0 5.95895 333.679   8
   0 -23   0 232.319 243.259   3
   0  23   1-46.4660 56.7983   7
   0 -23   1-16.7709 151.564   4
   0 -23  -1 193.799 401.811   3
   0  23  -1 93.9425 148.605   8
   0 -23   1 462.219 351.020   3
  -1   0   0 22.7874 14.2540   3
   1   0   0 2.35608 6.28343   8
   1   0   0-31.4932 98.1333   5
  -1   0   0-7.89204 12.9208   8
  -1   0  -1 23.5775 20.5478   8
   1   0   1-13.4067 17.8117   1
   1   0  -1-9.84427 27.7823   4
   1   0  -1-22.1687 25.2425   5
  -1   0   1-60.4194 48.6148   5
  -1   0  -1-7.05610 24.7353   7
   1   0   1-8.08119 23.2119   7
  -1   0   1 95.6231 222.612   6
  -1   0  -1 8.49833 27.0134   1
   1   0  -2 28.9793 23.4190   4
   1   0  -2 19.5034 47.1095   5
  -1   0   2 47.2307 135.955   6
  -1   0  -2 52.6167 36.6010   1
  -1   0  -2-22.9946 31.0656   7
  -1   0  -2 30.7716 31.9918   2
   1   0   2-27.7254 39.5717   7
   1   0   2 16.2109 33.3074   1
  -1   0   2 4.31673 38.2673   5
   1   0   3 55.2363 48.1680   7
  -1   0   3-78.6442 126.409   6
   1   0   3 7.72099 30.2798   4
  -1   0  -3 114.617 84.9174   1
  -1   0  -3 4.59130 28.6949   7
   1   0   3-22.8688 33.6749   9
  -1   0  -3 52.8830 60.9642   2
  -1   0   3 58.0518 53.8423   5
   1   0  -3 84.9624 60.1684   5
  -1   0   3-132.589 254.862   7
  -1   0   4 187.052 282.736   7
   1   0   4 168.856 129.469   7
  -1   0   4-8.94348 113.155   6
   1   0   4 56.5047 48.9377   4
   1   0   4 100.490 91.7975   9
  -1   0  -5 18.3589 49.1772   2
   1   0   5 121.497 104.950   7
   1   0   5 9.70193 32.7874   9
  -1   0   5 25.9764 100.502   7
  -1   0   5-58.4620 153.929   6
  -1   0  -6 31.2319 155.594   8
  -1   0   6-171.860 314.500   6
  -1   0   6-179.023 52.6672   7
   1   0   6 27.7234 81.2606   7
  -1   0   7-24.9468 121.837   7
   1   0   7 148.103 148.063   7
  -1   0  -7 164.058 241.776   8
  -1   0   7-139.887 323.791   6
  -1   0   7 52.4164 114.528   9
  -1  -1  -7 10695.1 1554.01   8
   1   1  -7 13498.6 1810.81   8
  -1   1   7 5872.52 1306.92   6
  -1   1   7 5086.62 1168.47   7
  -1   1   7 9044.61 1453.74   9
  -1   1   6 1065.58 519.429   6
   1  -1   6 946.567 306.390   7
  -1   1   6 525.807 311.425   7
   1  -1   6 903.793 253.804   4
  -1   1   5 5416.36 1105.14   7
  -1  -1  -5 11099.4 1152.64   2
  -1   1   5 4877.52 938.844   6
   1  -1   5 9460.40 981.721   9
   1  -1   5 8906.53 809.323   7
   1  -1   4 740.059 195.163   7
  -1   1   4 603.985 272.968   6
  -1   1   4 775.592 388.673   7
   1  -1   4 806.397 248.935   9
  -1   1   3 6283.94 872.337   6
  -1   1   3 9282.81 1365.81   7
   1  -1   3 8818.64 684.345   9
   1  -1   3 8021.91 502.649   4
   1  -1   3 9194.33 598.778   7
  -1   1   3 8874.61 593.094   5
  -1  -1  -3 13600.0 794.794   2
   1   1  -3 14194.6 1070.77   5
   1   1  -2 686.798 199.822   5
   1  -1   2 530.753 119.425   1
   1   1  -2 659.674 155.679   4
  -1   1   2 766.311 315.733   6
   1  -1   2 483.006 105.777   7
  -1  -1  -2 648.079 178.538   7
  -1  -1  -2 595.262 148.069   1
  -1  -1  -2 743.292 140.181   2
  -1   1   2 616.265 138.278   5
   1   1  -1 5270.91 368.201   4
  -1  -1  -1 4900.80 339.458   7
   1   1  -1 5236.83 471.355   5
   1  -1   1 2134.69 253.778   8
   1  -1   1 2183.33 182.989   1
  -1   1   1 1899.26 255.165   5
  -1  -1  -1 4920.31 352.889   1
  -1   1   1 3300.33 625.684   6
   1  -1   0 45.4189 27.0392   8
  -1   1   0 94.8151 39.7662   3
   1   1   0 75.5125 66.1923   5
   1  -1   0 53.9255 30.4681   3
  -1   1   0 75.6408 41.1450   8
  -1   1  -1 4368.42 259.981   1
   1  -1  -1 4210.86 410.307   5
   1   1   1 2076.75 218.732   7
   1   1   1 2395.89 240.587   1
  -1  -1   1 2441.43 295.158   5
  -1  -1   1 3327.31 670.956   6
  -1   1  -1 4656.23 266.245   7
  -1   1  -1 4877.00 376.078   8
  -1  -1   2 631.969 161.173   5
  -1   1  -2 606.632 111.729   2
   1   1   2 479.215 123.097   7
  -1   1  -2 729.689 164.388   9
  -1  -1   2 579.744 309.296   6
   1  -1  -2 689.341 177.698   5
  -1   1  -2 554.064 153.596   8
  -1   1  -2 526.682 118.974   1
   1   1   2 628.843 158.327   1
   1  -1  -2 642.298 156.353   4
  -1  -1   2 602.928 148.557   4
  -1   1  -2 694.202 151.750   7
  -1   1  -3 12603.1 700.172   1
  -1  -1   3 12630.4 1630.60   7
  -1   1  -3 13208.8 869.469   7
  -1  -1   3 7339.71 982.707   6
   1   1   3 9222.56 653.600   9
   1   1   3 8490.13 661.791   7
   1  -1  -3 11225.6 854.951   5
   1   1   3 8330.05 431.370   4
  -1   1  -3 13215.0 696.288   2
   1   1   4 603.633 194.875   9
   1   1   4 661.077 200.514   7
  -1  -1   4 298.124 162.266   7
  -1  -1   4 354.130 148.381   4
   1   1   4 500.557 131.727   4
  -1  -1   4 508.666 240.989   6
  -1  -1   5 5906.79 1139.33   7
  -1  -1   5 7004.75 1158.08   6
   1   1   5 8347.61 890.652   9
   1   1   5 8137.40 856.851   7
  -1  -1   6 798.350 389.337   7
  -1  -1   6 942.710 425.895   6
   1   1   6 727.294 275.617   7
  -1   1  -6 668.281 335.936   8
  -1  -1   7 8457.79 1461.81   7
  -1  -1   7 4780.57 1165.69   6
   1   1   7 8869.75 1103.39   7
  -1   1  -7 11180.5 1558.18   8
  -1  -1   7 8916.90 1429.71   9
  -1   2   7 603.231 411.576   6
  -1   2   7 1300.44 651.266   7
   1   2  -7 1301.37 606.012   8
  -1   2   7 698.202 422.509   9
   1  -2   6 603.155 227.752   4
  -1   2   6 471.806 234.758   6
  -1   2   6 522.670 434.197   7
   1  -2   6 609.673 247.559   7
   1  -2   5 2707.13 452.687   7
  -1  -2  -5 772.676 334.993   2
   1  -2   5 4400.42 731.776   9
  -1   2   5 322.196 293.002   6
   1  -2   5 2159.37 379.443   4
  -1  -2  -4 1046.53 276.713   2
  -1   2   4 565.816 357.172   7
   1  -2   4 988.244 269.982   9
   1  -2   4 927.462 212.234   7
  -1   2   4 1063.22 223.806   5
  -1   2   4 994.173 384.639   6
   1  -2   3 1211.78 234.477   7
   1   2  -3 1393.65 443.582   5
  -1   2   3 332.187 111.168   5
  -1   2   3 538.502 357.082   7
   1  -2   3 1947.73 443.434   9
  -1   2   3 335.324 174.262   6
   1   2  -2 3645.67 369.998   4
  -1   2   2 5205.17 979.154   7
  -1  -2  -2 3418.16 379.053   1
   1  -2   2 3996.55 280.211   7
  -1  -2  -2 3359.26 332.550   2
  -1   2   2 3881.62 330.495   5
  -1  -2  -2 3964.61 437.776   7
   1   2  -2 3881.06 494.501   5
  -1   2   2 3735.60 623.015   6
  -1   2   1 277.213 169.387   6
   1   2  -1 27.9645 25.2972   5
   1  -2   1 112.318 42.6257   1
   1   2  -1 146.419 67.5031   4
  -1  -2  -1 74.1297 52.8352   1
  -1   2   0 4280.45 323.416   8
   1  -2   0 4509.80 342.275   8
   1  -2   0 4210.14 274.682   3
  -1  -2   0 4214.36 267.722   4
  -1   2   0 4108.42 290.749   3
   1   2   0 5235.54 474.919   5
   1   2   0 4106.33 260.818   4
  -1  -2   0 4042.30 296.393   1
  -1  -2   1 261.355 253.057   6
   1  -2  -1 118.848 72.8483   5
   1  -2  -1 286.729 218.243   6
  -1   2  -1 83.6191 35.9684   3
   1   2   1 84.8351 53.1020   7
   1  -2  -1 113.846 108.223   8
  -1   2  -1 48.0072 18.7848   7
  -1   2  -1 42.0748 29.7197   8
   1  -2  -2 3550.09 375.498   5
  -1   2  -2 3425.52 422.807   8
   1  -2  -2 3368.96 612.679   6
   1   2   2 3716.20 388.855   7
  -1   2  -2 3757.39 396.027   6
  -1   2  -2 3244.95 251.250   1
   1  -2  -2 4240.40 438.049   4
  -1   2  -2 3502.26 297.669   7
  -1  -2   2 4316.14 818.271   6
   1   2   2 3828.44 165.605   4
  -1  -2   2 4496.26 428.530   4
  -1   2  -2 3458.74 239.420   2
  -1  -2   2 4410.77 460.595   5
   1   2   2 4578.91 456.717   1
  -1   2  -3 640.862 159.050   1
  -1   2  -3 983.990 358.492   8
   1   2   3 607.399 201.094   9
  -1   2  -3 762.692 193.180   2
  -1  -2   3 434.126 312.113   6
  -1   2  -3 389.091 172.311   7
   1   2   3 337.563 75.7800   4
   1  -2  -3 264.798 126.356   5
   1   2   3 650.147 221.901   7
   1   2   4 1233.24 303.952   7
  -1  -2   4 1106.08 275.087   4
  -1   2  -4 1054.60 323.574   8
  -1   2  -4 1039.80 218.160   1
  -1  -2   4 773.799 380.375   7
  -1   2  -4 788.549 277.309   2
  -1  -2   4 1262.50 441.409   6
   1   2   4 1095.34 272.926   9
   1   2   5 570.644 254.322   7
  -1  -2   5 368.892 318.370   7
  -1   2  -5 2469.65 648.104   8
   1   2   5 933.368 315.801   9
  -1  -2   5 3302.71 567.515   4
  -1  -2   5 2170.90 744.625   6
   1   2   6 661.475 298.839   7
  -1  -2   6 725.645 399.465   7
  -1  -2   6 260.062 233.230   6
  -1   2  -6 779.930 368.799   8
  -1   2  -7 1480.37 682.418   8
  -1  -2   7 236.851 255.645   6
   1   2   7 706.570 314.947   7
  -1  -2   7 1807.79 690.993   7
  -1  -2   7 2255.56 793.198   9
   1   3  -7 90124.5 4533.56   8
  -1   3   7 82409.4 4846.26   6
  -1   3   6 310.023 410.130   7
   1   3  -6 80.1956 87.9462   8
  -1   3   6 326.373 226.941   6
   1  -3   6 140.068 85.5645   7
   1  -3   6 344.540 162.612   4
  -1   3   5 134999. 4969.82   6
  -1  -3  -5 173892. 4534.56   2
   1  -3   5 179665. 3139.24   7
  -1   3   5 121085. 5293.92   7
   1  -3   5 181281. 3323.83   4
   1   3  -5 183450. 4798.42   8
   1  -3   4 12.0189 95.7547   9
   1  -3   4 14.3785 34.9981   7
  -1   3   4 99.6558 74.9848   5
  -1   3   4-9.82253 107.236   6
  -1  -3  -4 66.9282 37.0718   2
  -1   3   4 155.416 153.580   7
  -1   3   3 301655. 3138.31   5
   1  -3   3 317915. 2881.44   7
   1  -3   2 743.173 96.1463   7
  -1  -3  -2 976.753 232.436   7
  -1  -3  -2 807.276 199.601   1
  -1   3   2 634.292 263.239   7
   1   3  -2 1025.10 255.034   5
  -1  -3  -2 842.653 179.120   2
  -1   3   2 675.916 132.339   5
  -1   3   2 869.237 275.577   6
  -1  -3  -2 1050.93 214.201   6
   1   3  -1 467394. 3709.33   4
  -1  -3  -1 510074. 4272.51   1
   1   3  -1 481623. 3210.47   8
   1   3  -1 459057. 4680.35   5
   1   3  -1 463148. 6428.62   6
   1  -3   1 456407. 2203.49   1
  -1  -3   0 236.448 53.7439   8
  -1  -3   0 223.386 67.0982   4
   1   3   0 255.936 96.9865   5
  -1   3   0 178.494 67.9557   8
   1   3   0 285.598 73.6044   4
   1   3   0 208.179 63.5736   7
  -1  -3   0 265.543 80.7820   1
   1  -3  -1 545467. 7189.97   8
   1  -3  -1 470595. 5036.59   5
   1   3   1 493652. 3997.10   7
  -1   3  -1 456601. 4234.18   8
  -1   3  -1 490048. 3733.45   3
  -1  -3   1 524305. 8786.38   6
   1   3   1 489357. 5148.10   5
  -1   3  -2 899.778 195.551   6
   1  -3  -2 597.217 129.342   5
  -1   3  -2 1009.45 243.985   8
   1   3   2 624.709 179.709   1
  -1   3  -2 708.711 94.2664   1
  -1   3  -2 873.702 132.626   7
  -1  -3   2 974.867 226.283   5
  -1  -3   2 868.536 190.572   4
   1   3   2 771.894 185.882   7
   1  -3  -2 576.668 234.494   6
  -1   3  -2 872.319 102.938   2
  -1  -3   2 867.465 383.555   6
  -1   3  -3 305586. 5018.33   7
  -1   3  -3 345409. 3875.95   2
  -1   3  -3 302419. 2881.30   1
   1   3   3 336182. 4562.40   7
  -1   3  -3 336168. 5167.45   8
  -1  -3   3 309397. 6619.51   6
  -1   3  -4 37.5713 45.5498   1
   1   3   4-13.9586 44.1583   7
  -1   3  -4-23.3253 92.1989   8
   1   3   4-2.18598 56.5528   9
  -1  -3   4 104.008 65.6607   4
  -1  -3   4 54.5738 104.012   7
  -1  -3   4 176.005 62.8274   6
  -1  -3   5 188230. 3996.40   4
   1   3   5 195687. 4618.17   7
  -1   3  -5 180023. 4900.20   8
  -1   3  -6 121.567 83.5416   8
  -1  -3   6 464.078 373.619   7
  -1  -3   6 277.876 362.445   6
   1   3   6 162.447 87.6617   7
   1   3   7 98656.2 4097.57   7
  -1  -3   7 104276. 4917.04   9
   1   4  -7 1335.72 594.765   8
  -1   4   7 784.254 539.274   7
  -1   4   7 1118.45 605.499   6
   1  -4   6 1041.34 292.481   4
  -1   4   6 441.705 342.720   7
   1   4  -6 1271.30 459.827   8
  -1   4   6 802.542 417.765   6
  -1  -4  -6 805.056 376.274   2
   1  -4   5 652.026 168.502   7
  -1   4   5 612.911 392.885   6
  -1   4   5 510.051 446.989   7
   1  -4   5 702.631 216.821   4
   1   4  -5 507.132 244.134   8
   1  -4   4 1653.76 305.156   4
   1  -4   4 1914.65 252.660   7
   1   4  -4 1338.55 350.162   8
  -1   4   4 1404.25 445.761   6
  -1  -4  -4 1606.10 363.717   2
  -1   4   4 743.607 408.203   7
  -1   4   4 1820.61 241.040   5
   1   4  -3 389.701 144.300   8
   1  -4   3 511.581 97.3759   7
  -1   4   3 406.364 98.1370   5
  -1   4   3 354.905 180.709   6
  -1   4   3 94.4154 158.930   7
   1   4  -2 2471.87 410.649   5
  -1   4   2 2227.48 631.418   7
   1   4  -2 2155.79 246.003   3
   1   4  -2 2328.95 313.857   8
  -1   4   2 1487.89 317.903   6
  -1  -4  -2 2351.04 314.131   2
  -1  -4  -1 55.5787 18.7547   4
   1   4  -1 63.6343 56.6219   5
  -1  -4  -1 103.967 70.8635   1
  -1  -4  -1 46.3472 91.0648   5
   1   4  -1 29.4273 18.6050   8
  -1   4   1 100.673 234.633   7
  -1   4   1-1.23936 107.396   8
   1   4  -1 67.1831 53.4824   4
   1   4  -1 79.6772 50.8422   1
  -1   4   1 242.505 193.262   2
  -1   4   1 17.4271 69.2848   6
   1   4  -1 34.0337 32.6768   3
   1   4  -1 135.702 79.0916   6
   1   4   0 5276.20 367.773   7
  -1  -4   0 5194.43 390.116   1
  -1  -4   0 5014.40 319.547   8
   1   4   0 4006.79 440.242   8
  -1  -4   0 4965.39 327.075   4
   1   4   0 4390.11 362.282   1
  -1   4   0 5637.30 478.654   8
   1   4   0 4794.61 435.511   5
  -1   4  -1 21.2507 22.7475   6
  -1  -4   1 51.3395 16.1148   8
  -1   4  -1 17.9339 11.3748   3
   1   4   1 31.4057 41.2824   5
  -1  -4   1 19.3416 17.6134   3
  -1   4  -1 14.8237 44.6982   8
   1   4   1 42.4480 15.0846   7
   1  -4  -1-38.0627 40.6338   6
   1  -4  -2 1925.12 220.519   5
  -1   4  -2 2404.61 146.624   2
   1   4   2 1790.18 288.823   7
  -1   4  -2 2440.49 329.908   6
  -1   4  -2 2105.93 355.581   8
  -1  -4   2 2283.45 624.240   6
   1   4   2 1655.65 300.296   1
   1   4   2 1866.83 344.612   5
   1  -4  -2 1671.47 402.009   6
  -1   4  -2 2261.84 213.220   7
  -1   4  -3 435.369 88.9667   1
  -1  -4   3 672.488 351.925   6
  -1   4  -3 514.513 214.226   8
   1   4   4 1740.73 402.685   7
  -1   4  -4 1512.82 222.665   1
  -1   4  -4 1757.37 432.677   8
  -1  -4   4 2395.83 784.402   7
  -1  -4   4 1735.52 529.683   6
  -1  -4   4 1653.35 352.592   4
  -1   4  -5 439.407 212.337   8
  -1  -4   5 216.389 88.7876   7
  -1  -4   5 902.728 473.286   6
  -1  -4   5 726.332 247.288   4
  -1  -4   6 665.029 321.687   7
  -1  -4   6 882.007 293.814   4
   1   4   6 1039.75 361.577   7
  -1   4  -6 1622.37 537.162   8
  -1  -4   6 403.779 294.978   6
   1   4   7 1576.43 574.810   7
  -1  -4   7 415.755 253.435   9
  -1   4  -7 1126.69 487.636   8
  -1  -4   7 583.079 334.330   6
   1  -5   7 12735.7 1152.52   4
  -1   5   7 11764.2 1756.61   6
  -1   5   6 249.322 240.513   7
   1  -5   6 655.571 240.983   4
  -1   5   6 592.534 319.372   6
  -1  -5  -6-17.0447 197.371   2
   1   5  -6 613.246 292.274   8
   1   5  -5 13619.6 1298.44   8
   1  -5   5 8339.82 551.878   7
   1  -5   5 8521.70 796.557   4
  -1  -5  -5 13297.5 1251.29   2
  -1   5   5 5222.39 1104.18   7
  -1   5   5 6240.85 1047.37   6
   1  -5   4 306.878 150.089   4
  -1   5   4 319.874 311.719   7
   1   5  -4 281.712 163.007   8
  -1  -5  -4 351.920 209.246   2
  -1   5   4 378.157 212.410   6
   1  -5   4 427.402 103.965   7
  -1  -5  -3 12583.9 930.808   2
  -1   5   3 4920.76 710.270   6
   1  -5   3 6896.98 268.234   7
   1   5  -3 11235.2 1083.96   5
   1   5  -3 10375.7 847.219   8
  -1   5   3 4743.92 906.748   7
  -1   5   2 417.818 173.065   6
   1   5  -2 630.716 178.861   8
   1   5  -2 463.231 115.884   3
  -1   5   2 263.270 158.748   7
   1   5  -2 607.086 196.865   5
  -1   5   1 16289.5 980.981   6
  -1  -5  -1 11155.2 941.643   5
  -1  -5  -1 15948.1 854.579   1
   1   5  -1 15608.6 913.720   5
  -1   5   1 16233.8 1315.38   2
   1   5  -1 13271.6 639.721   1
   1   5  -1 14739.8 681.908   8
   1   5  -1 16209.0 984.735   6
  -1  -5  -1 13820.5 448.061   4
  -1   5   1 13466.3 1256.78   8
  -1  -5  -1 15454.7 1272.98   8
   1   5  -1 14293.9 604.116   3
  -1   5   1 13887.3 1447.39   7
  -1  -5   0 183.664 95.7883   5
   1   5   0-2.82337 50.3350   8
  -1  -5   0 28.4297 7.72946   8
  -1  -5   0 33.2553 3.74747   4
  -1  -5   0 74.3063 43.1320   7
  -1   5   0 207.926 167.791   2
  -1  -5   0 61.9378 3.65345   1
   1   5   0 87.2457 28.4437   1
   1   5   0 117.670 61.0817   7
   1   5   0 52.4807 49.9114   5
  -1   5   0 255.950 187.487   7
  -1   5   0 87.4604 61.7794   8
  -1  -5   1 15593.1 663.278   8
  -1  -5   1 14055.3 1600.81   6
   1   5   1 15901.5 813.909   7
  -1   5  -1 15309.0 875.344   2
  -1  -5   1 16349.5 654.321   7
  -1  -5   1 15227.3 574.110   3
  -1   5  -1 14409.7 617.197   6
   1   5   1 13644.4 709.781   5
  -1   5  -1 14784.3 758.151   3
  -1   5  -1 15651.0 904.652   8
  -1   5  -1 14682.4 770.267   7
  -1  -5   2 236.867 194.401   6
  -1   5  -2 528.679 152.739   6
  -1   5  -2 372.016 162.391   8
   1   5   2 444.021 141.785   5
   1   5   2 483.541 163.330   7
   1  -5  -2 219.058 130.776   6
   1  -5  -2 409.348 80.8462   5
   1   5   3 7684.34 682.820   5
   1   5   3 7662.20 773.479   7
  -1  -5   3 8057.91 1078.71   6
  -1  -5   3 7316.05 670.779   4
  -1   5  -3 9991.51 946.643   8
  -1   5  -4 322.876 87.1758   1
  -1  -5   4 618.770 354.246   6
  -1   5  -4 485.838 210.642   8
   1   5   4 541.056 253.191   7
  -1  -5   4-66.9439 141.148   7
  -1  -5   4 410.502 138.980   4
  -1  -5   5 8246.98 869.047   4
  -1  -5   5 6550.71 1091.12   7
   1   5   5 8409.69 1049.79   7
  -1  -5   5 9010.20 1318.00   6
  -1  -5   6 608.160 353.486   7
  -1   5  -6 610.493 337.640   8
  -1  -5   6 727.317 429.464   6
  -1  -5   6 449.455 199.276   4
   1   5   6 716.588 330.960   7
   1   5   7 11282.4 1510.84   7
  -1   5  -7 17250.7 1972.20   8
  -1  -5   7 11959.7 1636.50   9
  -1  -5   7 11233.2 1895.53   6
   1   6  -7-144.530 23.6555   8
  -1   6   7-165.787 156.898   9
  -1   6   7-38.4999 114.135   6
   1  -6   7 194.057 151.931   4
  -1   6   6 240.717 402.827   7
   1   6  -6-0.98298 48.9070   8
   1  -6   6 56.5253 62.8397   4
  -1  -6  -6-69.9337 108.043   2
  -1   6   6-48.6663 155.421   6
  -1   6   5 37.2837 29.7498   6
   1   6  -5-18.0183 114.117   8
   1  -6   5-25.2869 51.0446   4
   1  -6   5-5.24435 27.6145   7
  -1  -6  -5-146.563 185.510   2
   1  -6   4 291.049 134.798   4
  -1   6   4 84.7895 36.3641   6
   1   6  -4 357.623 199.825   8
  -1   6   4-12.6672 58.6725   7
  -1  -6  -4 220.113 162.861   2
   1  -6   4 124.463 35.1327   7
   1   6  -3 57.9752 89.0491   5
   1   6  -3 79.3481 87.3646   8
  -1   6   3 131.742 140.566   7
  -1   6   3-141.186 78.6056   6
  -1  -6  -3-75.7598 16.1134   2
   1   6  -2 188.776 79.9918   3
  -1   6   2 505.568 332.459   7
   1   6  -2 404.340 181.238   5
   1   6  -2 292.260 139.378   8
  -1   6   2 101.506 58.7434   6
   1   6  -2 326.632 104.197   1
  -1   6   1-78.8880 144.939   8
  -1   6   1 18.7705 108.698   7
   1   6  -1 142.478 109.177   5
   1   6  -1 127.837 81.3879   6
   1   6  -1 127.567 53.6363   1
  -1  -6  -1-27.2336 49.4768   5
   1   6  -1 111.834 75.4106   8
  -1  -6  -1 84.9113 42.5529   4
  -1  -6  -1-42.2202 112.605   8
  -1   6   1 68.9085 26.7960   6
  -1   6   1-71.9009 99.4132   2
   1   6   0 316.253 151.153   8
  -1  -6   0 418.789 125.607   8
   1   6   0 478.061 129.173   7
  -1   6   0 485.689 73.5339   6
   1   6   0 528.358 133.480   1
  -1  -6   0 442.069 117.472   7
  -1  -6   0 851.484 248.410   5
   1   6   0 465.740 145.417   5
  -1   6   0 523.855 213.243   7
  -1   6   0 574.925 173.231   8
  -1  -6   0 430.606 136.099   1
  -1  -6   0 461.434 115.113   4
  -1   6   0 621.374 180.046   2
   1  -6  -1 173.238 117.387   6
  -1   6  -1 57.5069 45.6499   6
  -1  -6   1 20.5372 24.7044   7
  -1   6  -1 47.4634 43.9881   9
   1   6   1 92.7197 52.6537   5
  -1   6  -1 90.3561 73.6495   8
  -1  -6   1 80.0371 50.2695   8
  -1   6  -1 79.1233 38.8381   7
  -1   6  -1 91.4901 48.5980   2
   1   6   1 18.7023 43.1428   7
  -1  -6   1 97.5910 158.150   6
  -1  -6   1 77.2235 36.3503   3
   1  -6  -2 186.840 120.613   6
  -1  -6   2 464.358 261.215   6
   1   6   2 234.611 93.1691   5
  -1   6  -2 340.862 160.263   6
   1   6   2 302.137 151.697   7
  -1   6  -2 550.233 219.021   8
  -1   6  -3 80.6679 115.938   8
   1   6   3 154.568 156.855   7
   1   6   3 18.4467 25.8383   5
  -1  -6   3-8.09977 94.9225   4
  -1  -6   3-51.8089 142.613   6
  -1  -6   4 262.084 152.505   6
  -1   6  -4 344.598 175.136   8
   1   6   4 346.799 175.235   7
   1   6   4 259.589 112.230   5
  -1  -6   4 500.854 383.233   7
  -1  -6   4 161.273 93.2250   4
   1   6   5-14.2870 42.1895   5
  -1   6  -5 69.6483 96.9823   8
   1   6   5 34.5025 180.017   7
  -1  -6   5 85.9418 114.714   7
  -1  -6   5-91.5543 225.840   6
  -1  -6   5-110.134 107.354   4
  -1   6  -6 200.311 183.248   8
  -1  -6   6 194.802 230.457   7
  -1  -6   6 94.1156 61.0630   9
  -1  -6   6 11.1827 98.3558   6
   1   6   6 285.587 219.631   7
  -1  -6   6 77.3920 90.3828   4
   1   6   7 117.212 127.487   7
  -1   6  -7-195.550 225.936   8
  -1  -6   7 81.3122 120.318   9
  -1  -6   7 14.3879 204.051   6
   1   7  -7 10279.0 1528.10   8
   1  -7   7 8178.14 980.010   4
  -1   7   7 4733.06 1281.33   7
  -1   7   7 4663.25 988.414   9
  -1  -7  -6 424.202 210.492   2
  -1   7   6 1186.30 620.575   7
   1   7  -6 362.620 265.084   8
  -1   7   6 537.084 321.598   6
   1  -7   6 664.473 276.628   4
  -1   7   5 7815.89 1178.69   6
  -1   7   5 6943.37 1336.13   7
   1   7  -5 10564.8 1193.85   8
   1  -7   5 9387.91 909.712   4
  -1  -7  -5 10278.2 1155.68   2
  -1   7   4 1018.86 351.992   6
   1   7  -4 323.535 179.655   8
  -1   7   4 714.782 342.748   7
  -1  -7  -4 755.973 279.753   2
  -1   7   3 6371.70 1091.08   7
  -1  -7  -3 12881.6 989.318   2
  -1   7   3 7456.13 859.784   6
   1   7  -3 11081.5 679.182   1
   1   7  -3 12095.3 973.839   8
   1   7  -3 13815.0 1257.50   5
  -1   7   2 388.256 269.701   7
   1   7  -2 436.638 128.781   1
   1   7  -2 642.859 206.120   8
  -1  -7  -2 397.551 64.4080   4
  -1   7   2 446.669 175.140   6
   1   7  -2 484.966 213.721   5
   1   7  -2 306.123 110.000   3
  -1   7   1 8516.76 1034.21   7
   1   7  -1 9769.67 650.578   8
  -1   7   1 6843.86 467.021   6
  -1   7   1 7679.12 980.038   8
   1   7  -1 9134.99 578.839   1
  -1  -7  -1 9694.88 1126.27   8
   1  -7   1 7932.80 417.592   1
   1   7  -1 10507.2 805.380   5
   1   7  -1 9412.98 666.875   6
  -1  -7  -1 6974.32 778.994   5
  -1   7   0 0.38051 47.8943   8
  -1   7   0 112.626 93.0563   7
   1   7   0 64.2026 49.5101   8
  -1  -7   0 24.9684 40.4850   7
  -1  -7   0 22.3027 56.0458   1
   1   7   0 33.7567 42.0056   1
  -1   7   0 189.054 93.9746   2
  -1  -7   0 52.9471 90.6826   5
  -1  -7   0 40.9115 26.1001   4
   1   7   0 76.4905 44.4124   7
   1   7   0 28.4701 41.1159   5
  -1  -7   0 28.5403 59.0085   8
  -1  -7   1 8931.43 532.791   3
   1   7   1 8977.17 685.512   7
  -1  -7   1 9509.97 640.479   8
   1   7   1 8365.32 555.559   5
  -1   7  -1 9898.77 472.825   7
   1  -7  -1 11643.8 767.572   6
  -1  -7   1 8921.55 629.619   4
  -1   7  -1 10111.3 817.947   8
  -1   7  -1 10201.4 446.046   2
  -1  -7   1 8997.24 528.182   7
  -1  -7   1 7446.68 1286.45   6
  -1   7  -1 10699.2 618.429   6
  -1  -7   1 8489.66 577.288   1
  -1   7  -2 454.501 173.599   6
   1  -7  -2 195.495 106.122   6
   1   7   2 373.164 101.744   5
  -1   7  -2 398.039 181.549   8
  -1  -7   2 499.402 121.488   7
   1   7   2 339.423 136.444   7
  -1  -7   2 321.033 228.420   6
  -1  -7   3 11786.3 1245.58   6
  -1   7  -3 12447.1 1092.34   8
  -1  -7   3 10419.1 866.661   4
   1   7   3 9205.13 542.937   5
   1   7   3 10427.2 960.744   7
  -1  -7   4 445.479 191.394   4
   1   7   4 741.106 280.258   7
  -1   7  -4 442.292 191.862   8
  -1  -7   4 268.332 144.229   7
  -1  -7   4 731.025 412.630   2
   1   7   4 503.874 126.264   5
  -1  -7   4 508.126 279.923   6
  -1   7  -5 11388.3 1311.00   8
  -1  -7   5 10001.6 1234.97   7
   1   7   5 8544.54 1139.41   7
  -1  -7   5 10326.4 1373.34   6
  -1  -7   5 8346.62 909.649   4
  -1   7  -6 758.637 407.430   8
   1   7   6 678.869 359.475   7
  -1  -7   6 612.706 323.963   6
  -1  -7   6 488.497 238.376   4
  -1  -7   6 750.802 355.301   9
  -1  -7   7 9644.16 1489.41   9
  -1   7  -7 10172.5 1513.22   8
  -1  -7   7 7859.21 1031.77   4
  -1  -7   7 8955.77 1667.09   6
   1   7   7 9471.96 1510.36   7
   1   8  -7 240.022 147.481   8
   1  -8   7 261.405 200.785   4
  -1   8   7-221.888 427.731   7
  -1  -8  -6 360.919 230.699   2
   1   8  -6 677.968 350.200   8
  -1   8   6 504.912 418.472   7
   1  -8   6 906.854 326.407   4
  -1   8   6 704.464 409.862   6
   1   8  -5 470.625 263.068   8
  -1   8   5 16.0519 154.657   6
   1  -8   5 329.063 181.517   4
  -1   8   5 369.079 189.245   7
  -1  -8  -5 473.338 300.901   2
  -1   8   4 935.267 516.131   7
  -1   8   4 714.787 285.416   6
   1   8  -4 1236.60 365.199   8
   1   8  -4 1155.33 230.546   1
  -1  -8  -4 1181.94 356.884   2
   1   8  -3 94.4542 189.197   5
  -1   8   3-167.538 168.586   7
   1   8  -3 156.464 64.7606   1
  -1   8   3 157.323 144.163   6
   1   8  -3 209.774 95.7514   8
  -1  -8  -3 412.980 233.176   2
  -1   8   2 1564.77 309.841   6
   1  -8   2 1818.12 337.912   3
   1   8  -2 2170.50 433.070   5
  -1   8   2 887.530 395.684   7
   1   8  -2 1735.82 258.694   1
   1   8  -2 1732.40 334.994   8
   1  -8   1 123.688 41.6092   1
   1   8  -1 109.233 60.7673   1
   1   8  -1 233.827 125.479   5
  -1  -8  -1 95.1313 77.3278   5
  -1   8   1 196.135 59.9844   6
   1   8  -1 138.203 91.8520   8
  -1   8   1 267.622 257.839   8
  -1   8   1 198.919 175.513   7
  -1   8   0 58.8033 47.1659   8
   1   8   0 36.2162 66.0424   1
  -1   8   0 148.835 89.4217   2
   1   8   0 107.604 64.6187   7
  -1  -8   0 76.6787 64.2766   6
  -1   8   0 25.4332 70.5510   7
   1   8   0 0.49961 73.4592   8
   1   8   0 91.8011 56.0127   5
  -1   8  -1 168.490 64.8372   7
   1   8   1 159.314 88.5880   5
   1  -8  -1 110.369 76.4251   5
  -1  -8   1 150.018 78.4325   7
   1  -8  -1 156.023 79.0112   6
   1  -8  -1 60.3080 120.831   2
  -1  -8   1 161.358 97.1233   8
  -1   8  -1 135.699 132.151   8
  -1  -8   1 168.633 140.446   4
  -1   8  -1 157.753 52.2302   2
  -1  -8   1 62.2486 36.3015   1
  -1   8  -1 204.442 87.4512   6
   1   8   1 331.591 165.163   7
  -1  -8   1-109.392 176.536   6
  -1  -8   1 251.701 127.465   3
   1  -8  -2 2216.56 223.383   5
   1  -8  -2 797.796 132.237   5
  -1   8  -2 2197.62 435.969   8
   1   8   2 1921.15 381.718   7
  -1  -8   2 2080.92 260.452   7
  -1  -8   2 2868.45 602.725   6
  -1   8  -2 1880.03 406.039   6
   1  -8  -2 1064.02 313.753   6
   1   8   2 1992.21 253.021   5
  -1   8  -3-45.5791 170.206   8
   1   8   3 375.450 209.443   7
   1   8   3 32.1368 16.1346   5
  -1  -8   3 81.9621 95.4113   4
  -1  -8   3 477.117 284.130   6
  -1   8  -4 887.971 339.106   8
   1   8   4 834.835 127.995   5
   1   8   4 569.106 232.822   7
  -1  -8   4 1385.57 449.252   6
  -1  -8   4 747.534 266.767   4
  -1  -8   5 197.141 144.443   9
   1   8   5 262.704 260.082   7
  -1  -8   5 565.476 280.873   4
  -1   8  -5 228.520 104.020   8
  -1  -8   5 396.683 301.265   6
  -1  -8   5 282.350 187.364   7
  -1   8  -6 683.928 386.199   8
  -1  -8   6 921.566 369.429   9
   1   8   6 144.414 109.656   7
  -1  -8   6 546.046 372.760   6
  -1   8  -7 187.199 174.768   8
  -1  -8   7 440.403 283.568   9
   1   8   7 89.0041 231.851   7
  -1  -8   7 398.869 267.564   4
  -1  -8   7 329.126 359.678   6
   1   9  -7 67257.4 3866.92   8
   1  -9   7 70982.6 3074.49   4
   1  -9   6 37.3134 38.6929   4
  -1   9   6 127.692 316.374   7
   1   9  -6 164.205 180.253   8
  -1  -9  -6 307.149 358.707   2
  -1   9   5 127965. 4741.04   6
  -1  -9  -5 136269. 4450.55   2
   1   9  -5 127139. 4200.47   8
   1  -9   5 137085. 3790.89   4
  -1   9   4 69.3534 324.186   7
   1   9  -4-79.2503 133.748   8
  -1  -9  -4-13.8092 112.602   2
   1   9  -4 59.8791 66.5545   1
  -1   9   4 93.4499 86.9242   6
   1   9  -3 233873. 4514.11   8
   1   9  -3 223782. 3052.81   1
  -1   9   3 184076. 4278.15   6
  -1  -9  -3 258245. 4766.64   2
   1   9  -3 259922. 5697.99   5
   1   9  -2 210.389 108.708   8
  -1  -9  -2 312.656 140.825   2
   1   9  -2 435.159 205.465   5
   1  -9   2 249.080 127.554   3
   1   9  -2 291.001 116.355   1
  -1   9   2 332.514 141.665   6
  -1   9   2 209.432 241.053   7
   1   9  -1 336808. 4541.24   8
  -1   9   1 348488. 6501.06   7
  -1   9   1 302748. 6671.44   8
  -1  -9  -1 361778. 4247.33   2
   1   9  -1 321556. 3833.53   1
   1   9  -1 347196. 4938.87   5
   1  -9   1 329574. 3154.34   1
   1   9   0 157.348 133.811   8
  -1  -9   0 134.671 60.1637   9
   1   9   0 148.479 83.4036   7
  -1   9   0-28.1343 120.052   8
   1   9   0 228.823 131.629   5
  -1   9   0 189.523 116.920   7
  -1  -9   0 225.627 115.062   8
   1  -9   0 256.111 142.495   1
  -1   9   0 97.0010 33.1677   2
  -1  -9   0 76.2193 52.2718   6
  -1  -9   1 345932. 3912.33   3
   1   9   1 343596. 3799.29   5
  -1  -9   1 349922. 3789.78   7
   1   9   1 350831. 4669.66   7
  -1   9  -1 327058. 3085.42   7
  -1  -9   1 355427. 4382.36   4
  -1   9  -1 338962. 4795.58   6
  -1  -9   1 355549. 8278.75   6
  -1   9  -1 360681. 5396.44   8
   1  -9  -2 69.4347 94.4579   2
  -1   9  -2 418.341 215.697   8
  -1  -9   2 229.625 109.986   3
   1   9   2 208.181 81.4123   5
   1   9   2 139.576 104.359   7
  -1  -9   2 268.809 97.8969   7
  -1  -9   2 199.858 104.066   4
   1  -9  -2 159.665 73.7437   5
  -1   9  -2 344.441 183.755   6
  -1  -9   2 279.892 172.380   6
   1  -9  -2 223.434 126.227   6
   1   9   2 250.876 155.840   1
  -1   9  -3 240908. 5265.55   8
  -1  -9   3 245192. 2952.37   7
   1   9   3 242333. 2420.33   5
   1   9   3 247698. 5145.86   7
  -1  -9   4 129.659 137.251   6
   1   9   4 5.55455 90.6038   7
  -1   9  -4 3.07539 73.9124   8
  -1  -9   4 30.0031 77.3059   4
   1   9   5 136830. 4955.81   7
  -1  -9   5 164549. 4346.14   7
  -1  -9   5 154656. 5223.90   6
  -1  -9   5 140029. 3990.37   4
  -1   9  -5 123661. 4498.90   8
  -1  -9   5 132048. 4164.31   9
  -1  -9   6 208.886 145.921   4
   1   9   6 215.460 103.584   7
  -1   9  -6 91.2087 155.876   8
  -1  -9   6 73.9307 180.596   9
  -1  -9   6-41.9403 176.588   6
  -1   9  -7 68462.1 3996.52   8
  -1  -9   7 80967.0 4812.75   6
  -1  -9   7 77565.5 4139.28   9
   1   9   7 65630.7 4217.37   7
  -1  -9   7 67578.3 3178.15   4
  -1  10   6-206.794 357.955   7
  -1 -10  -6 688.373 450.270   2
   1  10  -6 877.631 409.199   8
   1 -10   6 744.125 298.903   4
  -1  10   5 288.750 329.901   7
  -1 -10  -5 772.621 350.398   2
   1 -10   5 719.412 328.319   4
   1  10  -5 737.515 321.035   8
  -1  10   4 1016.49 461.959   7
   1  10  -4 1601.97 431.407   8
  -1 -10  -4 1593.87 435.522   2
   1  10  -4 1550.28 250.970   1
  -1  10   4 879.892 339.569   6
   1  10  -3 616.879 169.297   1
  -1 -10  -3 661.411 276.629   2
   1  10  -3 327.167 142.274   8
  -1  10   3 375.442 310.870   7
  -1 -10  -3 408.025 72.7261   4
  -1  10   3 539.710 226.317   6
   1 -10   2 1227.27 299.118   3
  -1  10   2 855.942 429.784   7
  -1 -10  -2 1735.96 364.374   2
   1  10  -2 1637.07 340.711   8
  -1 -10  -2 1940.83 426.148   5
   1  10  -2 1799.27 295.581   1
   1  10  -2 2030.82 444.225   5
   1 -10   1 387.261 209.771   3
  -1  10   1-18.8147 31.0104   7
   1 -10   1 117.270 70.2207   1
  -1  10   1 381.849 284.692   8
   1  10  -1 13.3184 29.3288   8
  -1 -10  -1 132.180 57.2572   2
   1  10  -1 72.4043 67.6773   5
   1  10   0 4334.00 505.617   5
   1  10   0 4672.59 500.428   7
  -1 -10   0 3122.34 481.255   6
  -1  10   0 4432.46 572.262   7
  -1  10   0 4118.63 634.252   8
   1  10   0 4410.86 719.744   8
  -1 -10   0 4176.70 333.888   9
   1  10   1 80.0333 51.6898   5
  -1  10  -1 69.1533 86.4401   8
   1 -10  -1-36.3055 55.0788   5
  -1 -10   1 216.551 167.450   3
   1  10   1 39.3092 102.749   7
   1 -10  -1 262.718 248.481   2
  -1 -10   1 10.4063 63.1121   9
  -1 -10   1 94.2306 142.570   4
  -1  10  -1 78.1447 43.9731   6
   1  10   1 45.7552 9.98120   1
  -1 -10   1 245.441 247.598   6
  -1  10  -1-4.80523 36.2939   7
  -1  10  -2 1895.68 435.662   8
   1 -10  -2 1270.59 223.938   5
   1  10   2 1160.14 325.780   7
  -1  10  -2 1440.64 463.525   6
  -1 -10   2 936.311 229.097   3
   1  10   2 969.582 191.354   5
  -1 -10   2 898.683 182.055   7
  -1 -10   2 1604.41 405.620   6
  -1 -10   2 781.718 229.382   4
   1 -10  -2 1195.14 358.996   2
   1 -10  -2 1600.41 355.166   6
   1  10   3 485.361 269.541   7
  -1  10  -3 447.547 193.611   8
  -1 -10   3 567.592 138.581   7
  -1 -10   3 431.791 182.131   6
  -1 -10   3 384.598 188.483   4
   1  10   3 528.295 104.395   5
   1  10   4 1746.35 520.794   7
  -1 -10   4 1465.16 473.413   6
  -1 -10   4 1630.61 406.839   9
  -1 -10   4 1335.86 368.608   4
  -1  10  -4 1801.06 489.626   8
  -1 -10   5 677.100 307.744   4
  -1 -10   5 754.335 335.180   6
  -1 -10   5 409.529 202.755   9
   1  10   5 774.592 408.226   7
  -1  10  -5 606.431 261.638   8
  -1  10  -6 938.750 404.422   8
  -1 -10   6 951.221 389.281   9
   1  10   6 1510.02 632.723   7
  -1 -10   6 752.611 395.369   6
  -1 -10   6 1169.88 416.159   4
  -1 -11  -6 72.2297 144.788   2
   1  11  -6 243.967 224.023   8
   1 -11   6 138.095 106.306   4
  -1  11   6 129.576 297.550   7
  -1 -11  -5 19895.5 1797.28   2
   1  11  -5 18536.9 1654.27   8
   1 -11   5 14625.2 1335.60   4
   1  11  -4 96.2398 74.0133   1
  -1  11   4 429.361 273.133   7
   1  11  -4 159.768 167.155   8
  -1 -11  -4 188.444 148.661   2
  -1 -11  -3 17974.4 613.131   4
   1  11  -3 19407.5 928.158   1
   1  11  -3 20089.2 1417.56   8
  -1 -11  -3 19585.0 1368.66   2
   1  11  -2 55.5433 54.1804   1
   1 -11   2 73.0401 85.0566   3
   1  11  -2 1.38875 54.5035   8
  -1  11   2 32.7532 165.800   7
  -1 -11  -2-57.8884 154.027   5
  -1 -11  -2 316.407 195.361   2
   1  11  -2 146.569 65.7852   5
  -1  11   1 14583.9 1342.33   7
   1 -11   1 12904.7 1004.68   3
  -1  11   1 10929.2 1325.54   8
   1 -11   1 12124.6 690.892   1
   1  11  -1 15031.9 1094.30   8
  -1 -11  -1 16232.7 1008.36   2
   1  11  -1 14453.9 1057.00   5
  -1  11   0 86.7856 132.184   8
   1  11   0 41.5242 73.4890   5
   1  11   0 32.8020 66.5956   7
  -1  11   0 14.6708 50.8040   7
   1  11   0-34.8036 135.202   8
   1 -11   0 43.9235 103.505   3
  -1 -11   0 237.083 162.430   6
  -1  11  -1 16120.6 1272.75   8
  -1  11  -1 14129.7 697.127   7
   1 -11  -1 12677.5 1147.69   2
   1  11   1 13061.7 981.053   7
   1  11   1 12491.3 799.307   5
  -1 -11   1 13219.5 815.191   9
   1  11   1 13929.9 1103.62   1
  -1 -11   1 12865.0 919.728   4
  -1 -11   1 12718.0 1251.71   6
  -1  11  -1 12594.6 570.353   6
  -1 -11   1 12347.0 836.075   3
   1 -11  -1 9401.38 866.548   5
  -1 -11   2 72.6250 37.5256   9
   1 -11  -2 116.508 132.075   2
  -1 -11   2 77.0675 32.0589   7
  -1  11  -2 134.278 140.240   8
   1  11   2 117.143 61.0084   5
   1 -11  -2 207.050 109.883   5
   1  11   2 179.773 70.9764   7
  -1 -11   2 235.216 158.869   4
  -1 -11   2 23.3234 79.1408   6
  -1  11  -2 533.527 317.467   6
  -1 -11   2 105.836 93.8611   3
   1 -11  -2 215.779 118.189   6
   1  11   3 15114.4 1361.34   7
   1  11   3 15861.5 604.519   5
  -1 -11   3 14309.5 1129.43   9
  -1 -11   3 15186.7 758.924   7
  -1 -11   3 15480.9 1214.18   4
  -1 -11   3 15445.5 1255.88   6
  -1 -11   4 109.828 26.4002   9
  -1 -11   4 71.0760 57.4343   6
   1  11   4 193.337 214.478   7
  -1  11  -4 220.133 191.384   8
  -1 -11   4 335.441 209.281   4
  -1  11  -5 19158.0 1831.74   8
   1  11   5 14714.6 1726.73   7
  -1 -11   5 13987.5 1360.45   4
  -1 -11   5 14312.1 1434.46   9
  -1 -11   5 15449.8 1565.79   6
  -1 -11   6 139.615 72.5215   6
  -1  11  -6 349.021 238.545   8
  -1 -11   6 294.419 72.1816   9
  -1 -11   6 699.414 327.644   4
   1  11   6 534.911 342.941   7
  -1 -12  -6 117.709 146.247   2
   1 -12   6-155.193 199.551   4
   1  12  -6 248.737 219.227   8
  -1  12   6 109.932 299.100   7
   1  12  -5 407.841 274.019   8
  -1  12   5-46.2895 214.076   7
   1 -12   5-43.2312 180.412   4
  -1 -12  -5-174.989 208.706   2
  -1  12   4-3.22064 207.901   7
   1  12  -4 127.451 48.7362   1
   1  12  -4 7.96086 125.769   8
  -1 -12  -4 314.387 163.771   2
  -1  12   3 54.3046 263.923   7
   1  12  -3-51.3473 117.079   8
   1  12  -3 95.7088 85.8031   1
  -1 -12  -3 96.8764 59.2733   4
  -1 -12  -3 134.818 70.7543   2
   1 -12   2 1436.64 349.416   3
  -1  12   2 1071.02 443.298   7
  -1 -12  -2 1145.04 343.659   5
  -1 -12  -2 866.441 265.465   2
   1  12  -2 741.845 263.242   8
   1  12  -2 1244.46 369.457   5
  -1  12   1 341.360 236.765   8
   1  12  -1-65.6356 111.657   8
   1  12  -1 76.7863 115.050   5
  -1  12   1 6.06288 82.0352   7
  -1 -12  -1 38.3331 58.3845   2
   1 -12   1-43.7259 99.2748   3
   1 -12   1 80.4677 63.2091   1
  -1  12   0 22.2377 97.5259   8
   1  12   0 149.524 201.571   8
   1 -12   0 1.85172 64.4182   3
   1  12   0 12.1679 87.6275   5
  -1  12   0 176.189 145.206   7
   1  12   0 24.6339 15.6653   7
  -1 -12   0-16.6347 61.0510   2
   1  12   0 90.7570 114.874   1
  -1 -12   0 147.557 138.230   6
  -1 -12   1 37.7936 32.3156   3
  -1  12  -1 72.0734 62.1632   7
  -1 -12   1 70.7294 64.2750   9
  -1  12  -1 83.1108 93.2578   8
   1  12   1 75.5708 79.4198   7
   1 -12  -1 77.1061 124.464   2
  -1 -12   1 50.3074 64.0444   4
   1  12   1-30.1682 34.6030   1
  -1 -12   1 10.9992 83.2281   6
   1  12   1-44.6550 87.2114   5
   1 -12  -2 866.011 263.487   2
   1  12   2 1181.43 363.358   7
  -1 -12   2 1135.60 299.098   6
  -1  12  -2 1039.69 362.807   8
   1  12   2 1202.04 228.665   5
   1 -12  -2 834.749 213.659   5
  -1 -12   2 976.395 283.872   9
  -1 -12   2 1044.30 285.827   4
   1 -12  -2 922.920 212.941   6
  -1  12  -2 701.808 315.667   6
  -1 -12   2 1148.05 289.016   3
  -1 -12   3 22.8870 108.675   9
   1  12   3 1.38449 13.4280   5
   1  12   3 50.5963 207.047   7
  -1 -12   3-100.692 126.938   6
  -1 -12   3 136.317 137.742   4
  -1  12  -3-100.220 27.3799   8
  -1 -12   4 278.402 182.072   4
  -1 -12   4 61.8883 118.511   9
  -1  12  -4-17.7687 77.4082   8
  -1 -12   4 250.320 186.698   6
   1  12   4-1.98550 57.0346   7
  -1  12  -5 19.7969 144.783   8
  -1 -12   5 189.401 162.649   4
   1  12   5-42.9847 117.117   7
  -1 -12   5 167.596 239.736   9
  -1 -12   5 210.895 216.821   6
  -1 -12   6 177.653 214.376   9
   1  12   6-244.907 331.411   7
  -1 -12   6 129.680 83.3971   6
  -1 -12   6 27.7140 92.6884   4
  -1  12  -6 199.514 248.123   8
  -1 -13  -6 275.407 355.078   2
   1  13  -6 597.071 346.645   8
   1 -13   6 756.474 365.794   4
  -1  13   6 531.420 472.791   7
  -1  13   5 11065.2 1918.83   7
   1  13  -5 14853.0 1531.89   8
  -1 -13  -5 16349.3 1718.03   2
   1 -13   5 15228.8 1444.28   4
   1  13  -4 530.365 267.618   8
  -1  13   4 662.742 310.296   7
  -1 -13  -4 323.940 159.195   2
   1  13  -3 19839.3 993.772   1
  -1 -13  -3 17885.7 795.260   4
  -1 -13  -3 19352.3 1459.69   2
   1  13  -3 17288.4 1374.50   8
   1 -13   2 170.670 128.075   3
   1  13  -2-41.9929 128.064   8
  -1 -13  -2 180.505 125.756   2
   1  13  -1 17360.2 1369.33   8
   1  13  -1 17245.4 1114.96   1
  -1 -13  -1 20525.1 1259.68   2
   1  13  -1 18334.2 1282.92   5
  -1  13   1 17170.7 1545.27   7
   1 -13   1 16740.8 1273.02   3
   1  13   0 11.7235 96.6056   1
  -1  13   0-158.766 207.302   8
   1  13   0 43.3405 79.7894   7
   1  13   0-63.1672 109.800   5
  -1  13   0 24.8173 76.0887   7
  -1 -13   0 33.0687 38.3184   6
  -1 -13   0-44.5768 117.665   3
   1 -13   0-61.7482 127.087   3
  -1 -13   0 41.3275 60.1881   2
   1  13   0 16.0176 24.2081   8
  -1  13  -1 17318.4 857.363   7
   1  13   1 17572.8 1032.30   5
  -1  13  -1 19187.1 1538.64   8
  -1 -13   1 16822.8 1092.31   6
  -1 -13   1 18731.1 946.999   2
  -1 -13   1 16369.0 1120.80   4
   1  13   1 17204.4 1340.31   1
   1  13   1 17767.2 1239.63   7
  -1 -13   1 16396.3 1082.68   3
  -1 -13   2 106.006 92.7843   6
   1  13   2 284.422 199.979   7
  -1  13  -2-37.3130 133.150   6
   1 -13  -2 195.586 122.718   5
   1  13   2 132.801 73.6363   5
  -1 -13   2 27.7672 93.2500   3
  -1 -13   2 83.4357 19.8556   9
   1 -13  -2 313.102 95.3300   6
  -1  13  -2 135.822 86.7142   8
  -1 -13   2 139.820 112.349   4
   1 -13  -2-89.1145 188.720   2
  -1 -13   3 18672.4 1281.51   6
  -1 -13   3 18343.2 1343.10   9
  -1 -13   3 18395.5 1414.01   4
   1  13   3 17139.7 1548.14   7
  -1  13  -3 18286.6 1594.16   8
  -1 -13   4 326.087 179.771   9
  -1  13  -4 198.245 190.410   8
   1  13   4 541.251 333.393   7
  -1 -13   4 277.874 141.379   6
  -1 -13   4 58.7422 71.8385   4
  -1  13  -5 16756.8 1798.27   8
  -1 -13   5 15077.3 1496.89   4
   1  13   5 14577.7 1854.73   7
  -1 -13   5 15008.5 1505.48   9
  -1 -13   5 15867.8 1521.74   6
  -1 -13   6 434.945 290.695   9
  -1 -13   6 226.036 203.572   4
  -1 -13   6 769.014 390.875   6
   1  13   6 488.021 369.320   7
  -1  13  -6 387.446 308.620   8
  -1 -14  -6 166.520 304.038   2
   1  14  -6 273.618 277.117   8
  -1  14   6-196.590 112.244   7
   1 -14   6 180.606 203.386   4
  -1  14   5 279.756 435.718   7
   1  14  -5-25.2371 196.940   8
   1 -14   5 67.7141 54.3678   4
  -1 -14  -5 8.86352 125.703   2
   1  14  -4 315.281 239.018   8
  -1  14   4 81.6101 313.328   7
  -1 -14  -4 366.122 239.341   2
  -1  14   3 219.451 305.308   7
   1  14  -3 34.5128 64.9341   8
  -1 -14  -3-13.0275 59.5212   4
  -1 -14  -3 67.1782 176.862   2
   1 -14   2 1097.33 336.881   3
  -1  14   2 408.406 259.557   7
   1  14  -2 976.691 345.541   8
  -1 -14  -2 1135.05 362.327   2
   1  14  -1 107.522 78.0771   5
  -1 -14  -1 14.0109 23.3298   6
  -1  14   1-136.734 298.603   8
   1 -14   1 295.533 213.868   3
   1  14  -1 19.9010 75.3216   8
  -1  14   1 15.4406 129.555   7
  -1 -14  -1-34.8045 127.667   2
   1  14  -1 44.2485 89.6432   1
  -1 -14  -1 129.530 56.2649   6
  -1  14   0 246.481 248.290   8
  -1 -14   0-3.63154 64.5871   3
   1  14   0 87.6272 88.5723   5
   1 -14   0-43.0888 85.9873   3
   1  14   0-142.230 116.224   1
   1  14   0 108.452 103.170   7
  -1  14   0 34.5922 57.2371   7
  -1 -14   0 75.4999 37.8387   6
   1  14   0 121.088 145.050   8
  -1 -14   0 233.897 132.621   2
   1  14   1 78.1613 115.043   7
   1 -14  -1 201.308 207.554   2
  -1  14  -1 48.8781 86.8887   8
  -1 -14   1 200.959 149.247   3
  -1  14  -1 18.7717 46.2334   7
  -1 -14   1 242.854 179.368   4
  -1 -14   1-3.55400 69.9465   6
   1  14   1 61.2513 28.3849   5
  -1 -14   1 18.6423 29.5507   2
   1  14   2 839.805 201.574   5
  -1 -14   2 909.774 256.656   3
  -1  14  -2 862.940 344.869   8
  -1 -14   2 818.867 263.178   9
   1  14   2 1125.29 362.221   7
  -1 -14   2 799.023 225.928   6
  -1 -14   2 888.531 203.097   2
  -1 -14   2 1199.40 350.385   4
   1 -14  -2 358.325 186.721   2
  -1 -14   3 45.7138 95.8908   9
  -1 -14   3 54.3311 79.3654   6
  -1  14  -3 98.5568 100.080   8
  -1 -14   3 93.9025 141.321   4
   1  14   3-91.9095 209.646   7
  -1 -14   3-7.84502 52.4075   2
  -1  14  -4 648.654 339.569   8
  -1 -14   4 232.740 155.675   9
  -1 -14   4 388.851 221.562   6
  -1 -14   4 171.749 194.468   4
   1  14   4 332.649 218.309   7
  -1 -14   5 30.3009 45.7951   9
   1  14   5-151.428 251.990   7
  -1 -14   5 357.540 251.341   6
  -1 -14   5 95.7730 132.848   4
  -1  14  -5 30.2990 55.8331   8
   1  14   6 411.972 339.255   7
  -1  14  -6 146.624 65.1350   8
  -1 -14   6 352.141 229.957   6
  -1 -14   6 111.547 160.708   4
  -1 -14   6 388.676 251.049   9
  -1  15   5 76756.1 5255.21   7
  -1 -15  -5 89214.8 4323.88   2
   1 -15   5 90169.2 3758.61   4
   1  15  -5 82730.8 3749.28   8
   1  15  -4 13.8886 44.5276   8
  -1  15   4 76.8797 343.995   7
  -1 -15  -4 88.1952 161.028   2
   1  15  -3 129125. 3999.48   8
  -1 -15  -3 138594. 4172.82   2
  -1 -15  -3 127932. 2564.48   4
   1  15  -2 199.598 164.886   8
   1 -15   2-72.2432 130.240   3
   1  15  -2 69.4693 31.1601   1
  -1  15   2 302.231 272.965   7
  -1 -15  -2 178.871 150.793   2
   1 -15   1 160101. 4269.19   3
   1  15  -1 167756. 4820.57   8
  -1  15   1 171074. 4950.84   7
  -1 -15  -1 197030. 4364.08   2
  -1  15   1 151126. 5855.70   8
   1  15  -1 169053. 3833.47   1
  -1 -15  -1 204912. 3700.27   6
   1  15   0 75.6048 52.3884   5
  -1 -15   0-21.9603 94.0372   3
   1  15   0 148.005 95.5083   7
  -1  15   0 132.187 160.490   8
   1 -15   0 140.099 168.677   3
   1  15   0 9.58616 225.187   8
  -1 -15   0 60.7753 59.2244   2
  -1  15   0 149.939 139.958   7
   1  15   0 225.465 143.235   1
  -1 -15   0-19.7879 61.8106   6
  -1 -15   1 153072. 3716.47   3
  -1 -15   1 183214. 3310.10   2
  -1  15  -1 175410. 5146.08   8
   1  15   1 175452. 3546.13   5
   1  15   1 160261. 4034.65   7
  -1  15  -1 156297. 2860.67   7
  -1 -15   1 162939. 2732.70   6
  -1 -15   1 157624. 3802.13   4
  -1  15  -2 213.613 173.883   8
  -1 -15   2 38.0441 21.2995   6
   1  15   2 28.1297 167.704   7
  -1 -15   2 27.5216 13.0078   2
  -1 -15   2 113.254 138.306   4
  -1 -15   2-42.3433 122.362   3
  -1  15  -3 136017. 4555.94   8
  -1 -15   3 142314. 3293.48   6
   1  15   3 137067. 4773.67   7
  -1 -15   3 137720. 4134.95   4
  -1 -15   3 139523. 3918.70   9
  -1  15  -4 353.203 272.860   8
  -1 -15   4 236.459 168.965   6
   1  15   4 71.4387 178.316   7
  -1 -15   4 119.305 104.283   4
  -1 -15   4 356.216 225.111   9
  -1 -15   5 100751. 3690.90   6
  -1 -15   5 92173.6 3863.14   9
   1  15   5 87532.4 4848.30   7
  -1 -15   5 96408.6 3994.20   4
  -1  15  -5 86946.1 4239.19   8
   1  16  -5 795.988 374.656   8
  -1  16   5 578.413 370.362   7
   1 -16   5 623.614 336.224   4
  -1 -16  -5 1180.46 497.239   2
  -1  16   4 664.949 310.058   7
   1  16  -4 606.241 283.762   8
  -1 -16  -4 584.488 228.426   2
   1  16  -3 225.397 145.577   8
  -1  16   3 308.755 293.138   7
  -1 -16  -3 602.840 286.475   2
   1  16  -2 938.382 357.526   8
   1 -16   2 1044.79 354.798   3
   1  16  -2 1018.91 274.905   1
  -1  16   2 887.587 423.723   7
  -1 -16  -2 1503.43 414.314   2
  -1  16   1-73.1050 74.4647   8
   1 -16   1 58.8836 118.855   3
  -1 -16  -1 162.208 137.070   6
  -1  16   1-41.1459 145.928   7
   1  16  -1 111.876 99.6331   1
   1  16  -1 11.5044 32.1550   8
  -1 -16  -1 10.7610 96.2495   2
  -1 -16   0 2598.79 571.164   3
   1  16   0 2706.01 790.107   8
  -1  16   0 3159.66 757.514   8
   1  16   0 2888.29 496.034   7
  -1  16   0 2889.56 493.058   7
  -1 -16   0 3884.64 589.347   2
  -1 -16   0 2439.04 272.282   6
   1 -16   0 2973.62 689.404   3
  -1 -16   1 20.4560 44.9149   6
   1  16   1-66.8426 80.3704   7
  -1  16  -1 97.9451 49.3781   7
  -1  16  -1 125.977 50.5504   8
   1 -16  -1 218.837 187.352   3
  -1 -16   1 169.736 173.303   4
  -1 -16   1 65.0757 144.499   3
  -1 -16   1 163.571 108.565   2
  -1 -16   2 821.814 212.369   2
  -1 -16   2 992.876 226.383   6
  -1 -16   2 781.625 278.504   3
   1  16   2 981.409 379.507   7
  -1 -16   2 781.098 284.268   4
  -1  16  -2 996.632 395.588   8
   1  16   3 338.924 268.779   7
  -1  16  -3 196.443 157.546   8
  -1 -16   3 546.183 273.366   4
  -1 -16   3 330.202 180.074   6
  -1 -16   4 1067.64 335.343   6
  -1 -16   4 1353.17 475.260   4
   1  16   4 1291.07 588.023   7
  -1  16  -4 637.062 324.425   8
  -1  16  -5 920.135 442.882   8
   1  16   5 1002.01 632.596   7
  -1 -16   5 733.239 322.361   6
  -1 -16   5 623.178 329.015   4
  -1  17   5 13424.2 2256.19   7
   1  17  -5 17942.3 1781.66   8
  -1 -17  -5 16079.3 1916.40   2
   1 -17   5 14503.9 1585.05   4
   1  17  -4 75.3209 116.906   8
  -1  17   4 224.645 300.596   7
  -1 -17  -4-192.137 256.979   2
  -1 -17  -3 18202.6 1602.89   2
   1  17  -3 18172.6 1636.86   8
   1 -17   2 133.641 155.573   3
   1  17  -2 63.8564 134.381   8
  -1  17   2-49.9715 241.288   7
  -1 -17  -2-17.2144 56.8654   4
  -1 -17  -2-50.0911 92.8801   2
   1 -17   1 10769.0 1209.56   3
  -1  17   1 11548.4 1300.91   7
   1  17  -1 13884.5 1579.88   8
  -1  17   1 12018.4 1779.65   8
  -1 -17  -1 14674.8 1222.79   2
  -1 -17   0-167.591 189.117   3
   1 -17   0 130.397 144.139   3
  -1  17   0-23.0122 53.6050   7
   1  17   0 54.3959 103.559   7
  -1  17   0 161.111 272.932   8
  -1 -17   0 28.4596 36.5528   4
  -1 -17   0 81.0258 115.954   2
   1  17   0 379.679 286.968   8
  -1 -17   1 10687.3 1068.79   3
   1  17   1 10415.8 1078.32   7
  -1 -17   1 12616.4 956.134   2
  -1  17  -1 13688.9 888.281   7
  -1 -17   1 11481.1 1119.69   4
   1 -17  -1 11868.8 1516.70   3
  -1 -17   2-69.6025 108.856   3
  -1  17  -2 50.7593 78.8170   8
   1  17   2-52.4119 122.415   7
  -1 -17   2 18.3311 95.8533   4
  -1 -17   2-8.22995 50.4201   2
   1  17   3 15003.7 1701.94   7
  -1 -17   3 13727.6 1394.67   4
  -1 -17   3 13779.3 964.843   6
   1  17   4 197.683 233.969   7
  -1 -17   4 33.7756 59.5120   6
  -1 -17   4-178.548 217.674   4
  -1  17  -4 91.8312 89.9260   8
   1  17   5 14663.6 2110.47   7
  -1  17  -5 15907.8 1844.71   8
  -1 -17   5 14811.0 1634.09   4
  -1 -18  -4 377.290 268.558   2
   1  18  -4 135.748 149.954   8
  -1  18   4 465.218 344.030   7
   1 -18   4 134.355 171.375   4
   1  18  -3 80.2824 62.4039   8
  -1  18   3-22.0459 182.270   7
  -1 -18  -3-138.175 60.9917   2
  -1  18   2 414.025 326.862   7
   1  18  -2 284.147 197.954   8
  -1 -18  -2 448.426 201.899   4
  -1 -18  -2 559.918 274.765   2
   1 -18   2 416.948 211.630   3
   1  18  -1-23.7371 145.208   8
  -1  18   1 164.467 159.106   8
   1 -18   1 36.7021 87.6777   3
  -1  18   1 99.9521 162.942   7
  -1 -18  -1-44.1233 97.2920   4
  -1 -18  -1 146.666 129.763   2
  -1  18   0 248.380 373.962   8
  -1  18   0 92.8705 67.5223   7
   1  18   0 0.56219 27.9711   7
  -1 -18   0 18.6279 116.139   3
  -1 -18   0 305.430 217.755   4
  -1 -18   0 226.618 149.141   2
   1  18   0 163.691 290.208   8
   1 -18   0 210.671 219.164   3
   1 -18  -1-105.219 214.492   3
  -1  18  -1 204.710 216.839   8
   1  18   1 55.1564 74.5033   7
  -1 -18   1-47.3000 113.215   3
  -1  18  -1 45.7818 58.9543   7
  -1 -18   1 4.51573 120.434   2
  -1 -18   1-20.2636 86.0984   4
   1  18   2 630.437 307.408   7
  -1  18  -2 246.976 179.579   8
  -1 -18   2 627.676 265.111   3
  -1 -18   2 830.653 333.904   4
   1  18   3-106.502 156.772   7
  -1 -18   3-47.0591 100.133   4
  -1  18  -3-49.0437 91.6864   8
  -1  18  -4 618.502 348.681   8
   1  18   4 312.943 357.020   7
  -1 -18   4-73.8378 75.8842   4
  -1  19   4 33.1729 204.584   7
   1 -19   4 354.678 320.855   4
   1  19  -4 219.434 162.197   8
  -1 -19  -4 362.674 271.939   2
   1  19  -3 23132.9 2003.46   8
  -1 -19  -3 24233.9 2015.93   2
   1 -19   2 96.9106 137.043   3
  -1  19   2-89.2547 67.2845   7
  -1 -19  -2-21.3425 92.6477   4
  -1 -19  -2 32.5344 148.505   2
   1  19  -1 26803.6 2441.85   8
  -1 -19  -1 25391.0 2312.10   3
  -1 -19  -1 30720.4 1922.68   2
  -1 -19  -1 29020.9 1841.16   4
   1 -19   1 29841.1 2228.80   3
  -1  19   1 30187.9 3001.62   8
  -1  19   1 27824.1 2113.14   7
  -1  19   0 104.235 103.002   7
  -1  19   0 371.072 310.910   8
  -1 -19   0 441.283 285.571   3
   1  19   0 53.8307 105.869   8
   1  19   0-175.476 150.211   7
  -1 -19   0 3.57544 93.6825   4
  -1 -19   0 45.2470 38.4918   2
   1 -19   0 111.555 98.3037   3
   1  19   1 26770.8 1854.29   7
  -1  19  -1 32219.8 2672.60   8
  -1 -19   1 33008.4 1650.20   2
  -1 -19   1 29887.7 2003.41   4
   1 -19  -1 27083.7 2442.79   3
  -1 -19   1 28948.4 1935.58   3
  -1  19  -2 134.712 102.959   8
  -1 -19   2 102.049 64.9694   3
   1  19   2-52.8929 127.794   7
  -1 -19   2 157.182 128.219   4
   1  19   3 24712.6 2343.84   7
  -1 -19   3 23252.3 1938.40   4
  -1  19  -3 25630.8 2329.68   8
   1  19   4 262.578 206.565   7
  -1  19  -4 331.967 274.797   8
  -1 -19   4 463.852 305.647   4
   1  20  -3 307.674 215.743   8
  -1  20   3 590.736 538.437   7
  -1 -20  -3 324.546 213.964   2
   1  20  -2 249.827 234.460   8
  -1  20   2 178.316 271.638   7
   1 -20   2 306.920 201.040   3
  -1 -20  -2 209.609 196.805   2
   1  20  -1-7.02573 285.413   8
  -1 -20  -1 79.0625 111.974   2
  -1  20   1 40.4542 121.236   7
   1 -20   1 197.779 257.918   3
  -1 -20  -1-81.8423 107.725   3
  -1 -20  -1-132.517 124.197   4
  -1  20   1-54.6584 232.882   8
   1 -20   0 16.7425 181.126   3
  -1  20   0-26.7258 102.910   8
   1  20   0-3.83230 146.550   7
   1  20   0-125.059 291.213   8
  -1 -20   0 113.255 105.242   3
  -1 -20   0-222.915 229.413   4
  -1 -20   0-77.6918 95.9945   2
  -1  20   0-53.9609 90.6560   7
  -1  20  -1-158.316 59.6934   8
   1 -20  -1-70.2313 112.918   3
   1  20   1 169.280 125.212   7
  -1 -20   1 137.110 84.1199   2
  -1 -20   1 71.0750 70.3713   3
   1 -20  -2 253.651 172.456   3
  -1 -20   2 252.916 173.912   3
   1  20   2-17.4310 154.175   7
  -1  20  -2-47.8042 285.557   8
  -1 -20   2 367.368 230.672   4
  -1  20  -3 8.88563 96.4732   8
   1  20   3-6.85962 63.5454   7
  -1 -20   3-73.8963 168.732   4
  -1 -21  -3 61162.9 3464.02   2
   1  21  -3 62968.9 3572.91   8
   1  21  -2 359.506 328.156   8
   1 -21   2 232.601 214.419   3
  -1  21   2 234.618 162.398   7
  -1 -21  -2-31.3887 170.929   2
   1  21  -1 65036.6 4301.78   8
  -1  21   1 69690.1 3506.22   7
  -1 -21  -1 67946.7 3101.07   2
  -1 -21  -1 79020.3 3403.86   4
  -1 -21  -1 66643.7 4018.68   3
   1 -21   1 75836.4 3882.60   3
  -1  21   0 508.888 476.225   8
  -1 -21   0 285.637 265.637   4
   1  21   0 207.833 225.170   7
  -1 -21   0 129.253 93.7815   2
   1 -21   0-209.291 261.794   3
  -1 -21   0 146.247 231.916   3
  -1  21  -1 77985.3 4591.21   8
   1  21   1 66470.3 3129.16   7
  -1 -21   1 75987.8 3437.66   3
  -1 -21   1 62269.0 3211.73   4
   1 -21  -1 70893.3 4173.19   3
   1 -21  -2-254.326 364.135   3
  -1 -21   2 286.714 217.643   3
  -1  21  -2-8.39667 115.115   8
  -1 -21   2-35.6461 125.923   4
   1  21   2 16.4338 138.617   7
   1  21   3 63415.2 3951.29   7
  -1  21  -3 67383.3 3997.42   8
  -1 -21   3 64916.2 3467.15   4
   1  22  -2 471.888 350.183   8
   1 -22   2 413.292 222.625   3
  -1  22   2 269.629 154.394   7
  -1 -22  -2 609.704 342.107   2
  -1 -22  -2 901.278 555.036   3
   1 -22   1 111.363 137.952   3
  -1  22   1 115.118 236.556   7
  -1 -22  -1-222.866 227.599   4
  -1 -22  -1 171.537 175.580   2
  -1 -22  -1-12.7501 154.426   3
   1  22  -1-79.7934 137.367   8
   1  22   0 848.605 308.742   7
  -1 -22   0 818.007 409.985   3
   1 -22   0 1055.70 505.053   3
  -1  22   0 995.290 650.256   8
  -1 -22   0 827.849 385.932   4
  -1 -22   0 511.638 238.747   2
  -1  22  -1-1.67906 103.446   8
   1 -22  -1 456.375 357.783   3
   1  22   1 66.1731 112.301   7
  -1 -22   1 168.504 272.645   3
  -1 -22   1 86.0016 97.8155   4
   1 -22  -2 1011.73 544.954   3
  -1  22  -2 312.885 210.263   8
  -1 -22   2 365.395 259.884   4
  -1 -22   2 425.240 226.898   3
   1  22   2 578.912 353.473   7
  -1  23   0 186.536 240.824   8
  -1 -23   0 81.3133 159.845   3
  -1 -23   0 236.978 247.554   4
   1 -23   0-260.138 218.139   3
  -2   0   0 438008. 2561.95   3
   2   0   0 445846. 3168.63   8
  -2   0  -1 401.105 112.638   8
   2   0  -1 415.722 160.432   8
   2   0   1 785.443 175.002   1
   2   0  -1 267.941 147.206   5
  -2   0   1 607.014 214.273   5
  -2   0   1 1000.95 258.036   6
  -2   0  -1 541.656 135.498   7
  -2   0  -2 424681. 4832.57   8
  -2   0  -2 387581. 3963.37   1
  -2   0  -2 433289. 4281.61   7
  -2   0   2 410929. 5080.40   5
  -2   0   2 506192. 9593.49   6
   2   0   2 459907. 4463.88   1
   2   0   2 446491. 4021.11   7
   2   0   3 741.487 189.039   7
   2   0  -3 458.773 219.289   5
  -2   0  -3 911.355 286.622   8
   2   0   3 931.116 236.962   1
  -2   0   3 1194.55 492.804   6
  -2   0  -4 204500. 4615.15   8
   2   0   4 201265. 3477.78   7
  -2   0   4 253016. 7709.96   7
  -2   0   4 255713. 6921.96   6
  -2   0  -5 266.132 188.086   8
   2   0   5 219.444 137.269   7
  -2   0   5-156.136 175.871   6
  -2   0   5 86.5356 299.611   7
  -2   0  -5 322.361 184.863   2
   2   0   6 119547. 3263.11   7
  -2   0  -6 114429. 4409.55   8
  -2   0  -7 233.495 225.888   8
  -2   0   7-319.879 421.912   7
  -2   0   7-86.6288 170.585   6
  -2  -1  -7 2197.74 688.212   8
  -2   1   7 2336.48 824.539   7
  -2   1   7 3611.77 993.463   6
   2  -1   6 695.153 232.203   7
  -2  -1  -6 1931.51 695.499   8
  -2   1   6 4727.62 1246.27   7
  -2  -1  -6 3728.70 753.366   2
  -2   1   6 4761.06 1087.06   6
  -2   1   5 4555.94 1066.85   7
   2  -1   5 4767.61 558.925   7
  -2  -1  -5 4635.63 772.072   8
  -2  -1  -5 4372.00 589.664   2
  -2   1   5 4777.73 983.241   6
   2   1  -4 732.608 379.226   5
  -2   1   4 3987.36 1257.72   7
  -2  -1  -4 4301.98 608.130   2
  -2   1   4 4114.33 933.854   6
   2   1  -3 6948.45 873.377   5
   2  -1   3 7828.60 633.676   1
   2  -1   3 7501.02 562.077   7
  -2   1   2 433.896 169.340   5
   2  -1   2 356.878 123.485   1
   2   1  -1 8981.95 723.237   8
   2  -1   1 7484.85 516.243   1
  -2  -1  -1 8390.78 552.064   7
   2   1  -1 8655.55 893.598   5
  -2  -1  -1 7659.03 469.940   8
   2  -1   1 8256.12 583.099   8
   2   1  -1 8406.40 648.034   4
  -2  -1  -1 8394.25 553.661   1
  -2   1   1 8812.33 762.063   6
   2   1   0 67.5627 76.9830   5
  -2  -1   0 95.4127 53.2298   8
   2   1   0 19.0173 23.3687   8
  -2   1   0 15.7678 25.6396   3
  -2  -1   0 7.01172 4.84875   3
   2  -1   0 42.9751 36.2547   3
  -2   1   0-29.1834 70.8149   8
   2  -1   0 38.9390 20.6979   8
  -2   1  -1 7916.21 530.537   8
  -2   1  -1 9164.57 542.048   7
   2   1   1 7782.33 568.197   1
   2  -1  -1 6770.81 818.188   5
   2  -1  -1 7110.27 700.115   8
  -2  -1   1 8314.42 780.519   5
  -2  -1   1 8867.10 789.254   6
  -2   1  -1 8141.30 491.405   3
   2   1   2 3912.04 460.384   7
   2  -1  -2 1275.31 456.007   5
  -2   1  -2 234.667 85.6864   7
   2   1   2 4453.59 557.549   1
  -2   1  -2 239.138 97.2941   1
  -2   1  -2 252.134 139.465   8
  -2  -1   2 404.552 424.675   6
  -2   1  -3 7844.21 591.552   1
   2   1   3 8115.54 719.268   1
  -2   1  -3 8868.38 846.007   8
   2   1   3 7742.56 642.388   7
  -2   1  -4 406.648 207.038   8
   2   1   4 3705.79 559.723   7
   2  -1  -4 4011.14 750.331   5
   2   1   4 2093.94 251.333   4
  -2  -1   4 702.433 509.829   6
   2   1   5 4336.63 388.905   4
   2   1   5 4565.54 606.362   7
  -2   1  -5 4782.67 616.660   2
  -2  -1   5 5491.54 1192.54   7
  -2  -1   5 5565.53 1113.24   6
  -2   1  -5 4542.77 786.375   8
  -2   1  -6 616.550 319.374   8
  -2  -1   6 892.297 600.815   7
  -2  -1   6 341.376 144.552   6
  -2  -1   7 1492.30 567.379   7
   2   1   7 2681.05 564.867   7
  -2   1  -7 2457.21 735.538   8
  -2  -1   7 3736.92 1045.34   6
   2   2  -7 612.654 389.994   8
  -2  -2  -7 593.177 396.878   8
  -2   2   7 486.654 273.062   7
  -2   2   7 381.776 260.113   6
  -2   2   6 10520.9 1706.41   7
  -2  -2  -6 11183.1 1379.00   8
   2  -2   6 7263.79 722.747   7
  -2  -2  -6 10919.0 1214.67   2
  -2   2   6 8830.84 1397.63   6
   2  -2   6 7816.38 713.130   4
  -2  -2  -5 488.180 226.810   2
   2  -2   5 400.436 171.404   7
  -2   2   5 779.866 425.347   7
   2  -2   5 409.955 150.369   4
  -2   2   5 625.430 348.542   6
   2   2  -4 7657.94 1065.48   5
  -2   2   4 7159.14 1086.69   6
   2  -2   4 6662.13 560.722   7
  -2   2   4 9416.68 1466.36   7
   2  -2   3 646.236 189.725   1
  -2   2   3 576.194 189.916   5
   2   2  -3 688.738 290.365   5
  -2   2   3 617.859 359.177   6
   2  -2   3 577.145 144.080   7
  -2   2   2 5186.75 585.092   5
   2  -2   2 5044.87 416.829   1
  -2   2   2 5244.07 869.565   6
   2   2  -1 557.883 214.054   5
   2  -2   1 691.664 177.277   8
  -2  -2  -1 554.725 147.092   7
   2  -2   1 578.699 141.609   1
   2   2  -1 488.716 150.401   4
  -2  -2  -1 454.328 138.116   1
  -2   2   1 874.737 237.822   6
   2  -2   0 1219.45 216.057   8
   2   2   0 795.103 289.261   5
  -2   2   0 1066.74 191.868   8
   2   2   0 1084.85 198.359   4
   2  -2   0 948.421 149.885   3
  -2   2   0 1013.61 166.529   3
   2  -2  -1 532.442 221.645   5
   2  -2  -1 403.416 144.606   8
   2   2   1 576.632 159.590   1
  -2  -2   1 729.474 228.201   6
  -2   2  -1 411.109 128.501   8
  -2  -2   1 505.169 217.226   5
   2   2   1 313.315 249.761   5
  -2   2  -1 542.125 137.516   3
   2   2   2 5346.13 533.725   1
  -2   2  -2 8213.19 709.393   8
   2  -2  -2 4916.26 603.451   5
   2   2   2 5100.67 476.652   7
  -2   2  -2 8756.40 536.219   7
   2  -2  -2 7862.02 891.268   8
  -2  -2   2 4944.73 1053.89   6
  -2   2  -3 538.976 209.905   8
   2  -2  -3 631.161 235.133   5
   2   2   3 718.469 231.520   7
  -2   2  -3 635.611 172.018   7
   2   2   3 782.025 229.731   1
  -2  -2   3 455.598 299.676   6
  -2   2  -3 668.901 158.774   1
   2   2   4 7200.27 730.663   7
  -2  -2   4 7353.37 1235.50   6
   2   2   4 6908.55 367.614   4
  -2   2  -5 356.579 190.967   8
   2   2   5 465.666 214.020   7
  -2  -2   5 266.480 227.745   6
  -2  -2   5 495.350 389.633   7
  -2   2  -5 402.561 206.275   2
   2   2   6 8061.28 924.544   7
  -2  -2   6 9061.47 1618.57   7
  -2  -2   6 7234.99 1385.90   6
  -2   2  -6 9651.67 1284.23   8
  -2  -2   7 436.655 441.912   7
   2   2   7 517.155 215.600   7
  -2   2  -7 359.439 289.887   8
  -2  -2   7 574.806 446.524   6
  -2  -3  -7 299.092 327.466   8
   2   3  -7-70.1853 252.507   8
  -2   3   7 237.271 196.273   7
  -2   3   7 75.2998 231.526   6
   2   3  -6 262.688 246.871   8
  -2   3   6 378.887 300.028   7
  -2   3   6-98.8791 208.843   6
   2  -3   6 125.627 113.354   4
  -2  -3  -6-183.965 241.584   2
   2  -3   5 155.626 99.5426   7
  -2   3   5 122.771 310.685   7
   2  -3   5 67.4218 112.608   4
  -2   3   5-32.7380 124.340   6
  -2  -3  -5-7.04514 24.1168   2
  -2   3   4-68.3409 105.437   7
   2  -3   4 36.9445 12.9297   7
  -2   3   4 19.7890 30.7891   5
  -2  -3  -4 51.5388 39.7390   2
  -2   3   4 192.128 222.688   6
   2   3  -4 164.087 145.761   5
   2  -3   3 233.580 86.4045   1
   2   3  -3 161.399 114.067   5
  -2   3   3 136.947 67.4619   5
  -2  -3  -3 62.1322 29.1810   2
  -2   3   3-78.6777 281.233   7
  -2   3   3 17.9186 49.0209   6
   2   3  -2 44.2103 128.526   5
   2  -3   2 5.04614 14.8276   1
  -2   3   2 41.4805 126.250   6
   2   3  -1 1363.43 128.696   8
  -2   3   1 1312.77 373.223   8
   2   3  -1 1528.74 339.970   5
   2  -3   1 1293.12 262.644   8
  -2   3   1 1482.78 323.220   6
  -2   3   0-16.1958 16.5765   8
   2  -3   0 5.04229 30.1095   8
   2  -3   0 29.2573 52.2995   3
   2   3   0-59.1214 59.3950   5
   2   3   0 12.3970 22.0510   4
  -2   3  -1 1030.01 194.825   3
   2  -3  -1 1149.34 311.324   8
  -2   3  -1 1130.64 235.243   8
  -2  -3   1 1470.75 336.969   6
   2   3   1 1386.97 234.669   7
   2   3   1 1504.47 432.695   5
   2   3   1 1244.34 170.402   4
   2  -3  -1 1489.23 413.580   5
  -2   3  -2 40.1555 75.6533   8
   2  -3  -2-30.1033 26.2881   5
   2   3   2-1.74767 29.2251   7
  -2   3  -2 19.3939 10.0740   7
   2   3   2 37.6918 66.3830   1
  -2  -3   2-74.8300 212.631   6
   2  -3  -3 101.130 101.242   5
   2   3   3 94.2380 45.7352   7
  -2  -3   3 283.651 163.172   4
  -2   3  -3 162.033 133.573   8
  -2   3  -3 153.150 85.1151   7
   2   3   3 339.011 143.418   1
  -2  -3   3 490.691 369.375   6
  -2   3  -3 62.0446 52.4653   1
   2   3   4 121.659 124.513   7
   2  -3  -4-69.0213 54.9090   5
  -2   3  -4 48.6931 72.9099   2
  -2  -3   4-127.144 175.170   6
  -2   3  -4 241.393 234.465   8
  -2   3  -4 28.8838 22.4849   1
   2   3   5 78.3105 83.2500   7
  -2   3  -5-62.1912 85.0111   8
  -2  -3   5 44.0703 156.913   7
  -2  -3   5 55.4052 115.153   6
   2   3   6-38.5473 77.7046   7
  -2  -3   6-215.892 312.523   7
  -2  -3   6 96.6921 293.766   6
  -2   3  -6 162.619 183.614   8
   2   3   7 100.996 170.868   7
  -2   3  -7 169.753 199.189   8
  -2  -3   7 600.244 475.237   7
  -2  -3   7 184.814 406.505   6
  -2   4   7 1138.30 655.469   7
  -2   4   7 867.126 512.906   6
  -2  -4  -7-123.069 179.969   2
   2   4  -7 403.161 334.760   8
  -2   4   6 9714.90 1654.15   7
  -2  -4  -6 11806.8 1274.45   2
  -2   4   6 10539.8 1476.53   6
   2  -4   6 8918.65 833.914   4
   2  -4   5 649.689 156.837   7
   2   4  -5 684.962 299.307   8
  -2   4   5 1060.92 516.476   7
  -2   4   5 711.064 341.607   6
   2  -4   5 394.937 183.866   4
  -2  -4  -5 818.607 295.534   2
   2   4  -4 3594.84 749.003   5
  -2   4   4 2459.28 372.817   5
  -2  -4  -4 5317.17 662.054   2
  -2   4   4 3240.33 878.417   7
  -2   4   4 3472.95 711.927   6
   2   4  -4 4384.09 628.949   8
  -2   4   3 588.853 386.431   7
   2   4  -3 679.121 289.353   5
   2   4  -3 606.108 182.013   8
  -2  -4  -3 598.005 213.933   2
  -2   4   3 500.781 274.794   6
   2   4  -2 10443.0 446.910   3
  -2   4   2 10882.0 1162.15   6
   2   4  -2 11553.3 645.999   8
   2   4  -2 12943.5 1126.24   5
   2   4  -1 417.242 70.7370   8
   2   4  -1 253.247 83.7384   5
   2  -4   1 569.157 150.264   3
  -2   4   1 224.106 39.0423   8
   2   4  -1 359.220 123.726   1
  -2   4   1 497.886 173.560   6
  -2   4   0 2423.02 349.362   8
   2   4   0 2989.92 514.396   5
   2  -4   0 2054.61 279.709   3
   2   4   0 2160.93 267.483   4
   2  -4   0 3132.03 412.544   8
  -2   4  -1 395.602 141.957   8
   2  -4  -1 365.694 195.772   8
   2   4   1 521.598 163.508   7
   2   4   1 724.999 272.423   5
   2   4   1 448.518 97.7977   4
  -2  -4   1 457.157 143.092   4
  -2  -4   1 416.597 179.728   6
  -2   4  -2 11074.4 860.532   8
   2   4   2 8934.87 750.884   1
   2  -4  -2 10441.0 881.813   5
  -2   4  -2 11473.4 540.110   7
   2   4   2 9872.60 1102.91   5
   2   4   2 9058.24 711.096   7
   2   4   2 7811.26 267.935   4
  -2  -4   2 9259.55 1550.91   6
   2  -4  -3 641.762 211.326   5
   2   4   3 529.589 193.018   7
  -2   4  -3 592.226 243.959   8
  -2   4  -3 590.289 159.100   7
  -2   4  -3 565.774 124.603   2
  -2  -4   3 357.871 321.618   6
  -2  -4   3 439.354 173.601   4
   2   4   3 604.232 195.233   1
  -2   4  -4 4735.85 606.205   7
   2   4   4 2876.02 489.003   7
  -2   4  -4 4559.08 439.407   2
  -2   4  -4 5133.37 775.857   8
  -2   4  -4 4210.96 376.293   1
  -2  -4   4 2687.64 764.659   6
   2  -4  -4 4379.90 546.827   5
  -2  -4   4 2335.27 443.048   4
  -2   4  -5 472.989 281.908   8
   2   4   5 909.485 291.047   7
  -2  -4   5 849.493 482.193   7
  -2  -4   5 55.7093 132.688   6
   2   4   6 8986.30 1053.01   7
  -2  -4   6 11777.2 1814.68   7
  -2  -4   6 8865.10 1545.61   6
  -2   4  -6 13299.9 1584.23   8
   2   4   7 484.271 286.765   7
  -2   4  -7 726.977 487.678   8
  -2  -4   7 473.612 434.745   6
  -2  -5  -7 1624.22 639.648   2
  -2   5   7 1879.20 790.888   7
   2   5  -7 2253.49 716.796   8
  -2   5   7 2492.81 788.571   6
   2   5  -6 651.471 377.732   8
  -2   5   6 401.044 265.039   6
   2  -5   6 289.771 167.094   4
  -2   5   6-310.082 426.858   7
  -2  -5  -6 569.177 295.500   2
   2   5  -5 3709.26 671.963   8
  -2   5   5 3077.12 888.852   7
   2  -5   5 2948.58 463.559   4
  -2   5   5 3048.28 678.692   6
  -2  -5  -5 3164.27 575.301   2
   2   5  -4 556.644 395.444   5
   2   5  -4 571.862 214.085   8
  -2   5   4 468.066 264.727   7
  -2  -5  -4 657.086 280.281   2
  -2   5   4 462.924 271.366   6
   2   5  -3 4454.29 401.330   3
  -2  -5  -3 4969.81 552.468   2
   2   5  -3 4776.36 542.819   8
  -2   5   3 5638.80 814.597   6
  -2   5   3 6306.76 1137.42   7
   2   5  -3 4871.76 801.933   5
   2   5  -2 137.747 50.2489   3
   2   5  -2-35.4739 183.755   5
   2  -5   2 189.623 70.0865   1
  -2   5   2 143.882 62.2815   7
   2   5  -2 190.849 99.6683   8
  -2  -5  -2 175.048 65.5454   9
  -2   5   1 5965.35 806.546   8
   2   5  -1 7271.89 364.047   8
   2   5  -1 7533.07 631.419   1
  -2   5   1 6569.21 697.107   6
   2   5  -1 7160.43 766.320   5
   2  -5   0-36.6086 30.3174   3
  -2  -5   0 41.7279 38.5406   8
   2   5   0-33.3777 40.9725   5
   2   5   0 14.2046 51.9408   4
  -2  -5   0 10.1406 5.42792   4
  -2   5   0 48.4149 106.689   8
   2   5   1 6540.19 570.412   7
   2   5   1 7681.39 803.669   5
  -2  -5   1 6546.34 569.744   4
  -2   5  -1 7202.66 668.832   8
  -2  -5   1 6534.46 276.314   3
   2   5   1 6972.13 405.252   4
  -2  -5   1 6789.20 806.359   6
  -2   5  -2 175.344 114.569   8
   2   5   2 365.816 198.436   7
  -2   5  -2 233.352 76.0194   7
   2  -5  -2 293.662 131.346   5
   2   5   2 198.866 151.233   5
   2   5   2 122.172 100.307   1
  -2  -5   2 38.3092 248.618   6
   2  -5  -3 4509.21 517.825   5
   2   5   3 4899.70 663.698   1
   2   5   3 5103.37 767.343   5
   2   5   3 4629.12 589.539   7
  -2   5  -3 4457.70 371.422   7
  -2   5  -3 4926.40 690.086   8
  -2   5  -3 4865.17 307.336   2
  -2  -5   3 6851.71 1362.62   6
  -2  -5   3 4699.89 602.710   4
   2  -5  -4 413.275 128.648   5
  -2   5  -4 292.207 246.676   8
  -2  -5   4 325.061 483.099   6
   2   5   4 428.306 236.133   7
   2   5   4 194.053 80.4948   5
  -2  -5   4 373.064 278.214   4
  -2   5  -4 550.428 157.461   2
   2   5   5 3336.59 621.519   7
  -2   5  -5 3186.68 681.395   8
  -2  -5   5 4124.40 1080.52   7
  -2  -5   5 3545.62 622.040   4
  -2  -5   5 3135.38 862.798   6
  -2   5  -6 503.655 351.515   8
   2   5   6 592.547 292.988   7
  -2  -5   6 619.915 407.992   7
  -2  -5   6 549.294 369.264   6
   2   5   7 1420.71 520.137   7
  -2   5  -7 1846.91 638.323   8
  -2  -5   7 1441.16 664.050   6
  -2  -6  -7 21.7239 118.379   2
   2   6  -7-75.7111 83.5935   8
  -2   6   7 375.455 443.415   7
  -2   6   7-193.474 276.458   6
   2  -6   6 106214. 3155.35   4
  -2   6   6 118939. 5898.70   7
   2   6  -6 98643.4 4087.05   8
  -2   6   6 122633. 4912.60   6
  -2  -6  -6 97243.9 3834.87   2
  -2   6   5 187.307 188.517   7
   2  -6   5 119.194 90.0715   4
  -2   6   5 200.665 249.790   6
  -2  -6  -5 107.167 38.6666   2
   2   6  -5 36.2413 66.4969   8
   2   6  -4 203876. 4330.88   8
  -2   6   4 248061. 7466.64   7
   2   6  -4 195628. 5749.53   5
  -2  -6  -4 251098. 4928.48   2
  -2   6   4 241653. 5675.59   6
   2   6  -3 675.247 215.806   8
   2   6  -3 837.302 313.534   5
  -2   6   3 636.016 316.156   7
  -2  -6  -3 312.326 117.788   2
  -2   6   3 406.450 201.626   6
   2   6  -2 288326. 3483.51   8
   2  -6   2 290527. 2265.71   1
  -2   6   2 367543. 8428.84   7
  -2   6   2 364442. 6026.17   6
   2   6  -2 309670. 5576.71   5
   2   6  -2 252723. 2752.97   3
  -2  -6  -2 291703. 2443.37   9
   2   6  -1 493.585 107.700   8
  -2  -6  -1 397.052 212.279   8
   2   6  -1 522.668 215.799   5
  -2   6   1 478.341 233.193   8
  -2   6   1 330.275 182.423   6
  -2   6   0 377996. 5127.17   8
  -2  -6   0 348127. 2706.90   8
   2   6   0 395757. 3854.31   4
   2   6   0 375264. 5283.97   5
  -2  -6   0 360416. 3809.42   4
  -2   6  -1 492.233 200.300   8
   2   6   1 567.364 218.994   5
  -2  -6   1 626.428 106.472   3
  -2  -6   1 507.200 164.333   4
   2   6   1 657.148 198.480   7
  -2  -6   1 787.973 299.282   6
  -2   6  -2 302401. 4909.54   8
   2   6   2 305893. 4490.04   7
   2  -6  -2 305604. 4492.29   5
   2   6   2 285822. 4877.62   5
   2   6   2 296595. 4736.90   1
  -2   6  -2 281450. 2240.26   7
  -2  -6   2 302049. 4481.80   4
  -2  -6   2 319839. 9868.34   6
  -2   6  -3 647.948 280.552   8
   2  -6  -3 525.190 153.677   5
   2   6   3 538.053 213.743   7
  -2   6  -3 768.353 109.813   2
   2   6   3 693.284 265.592   5
  -2   6  -3 483.859 102.533   7
  -2  -6   3 887.041 541.433   6
  -2  -6   3 571.440 203.036   4
   2   6   3 768.082 278.054   1
  -2   6  -4 223357. 5342.95   8
   2   6   4 213110. 4523.35   7
  -2  -6   4 202045. 7114.18   6
  -2  -6   4 221982. 4599.85   4
   2   6   4 195505. 4354.10   5
  -2   6  -5-120.799 210.960   8
   2   6   5 92.2515 94.9544   7
   2   6   5 186.596 152.128   5
  -2  -6   5 173.892 207.268   7
  -2  -6   5 140.369 299.537   6
  -2  -6   5 72.6991 104.592   4
   2   6   6 101391. 3899.54   7
  -2   6  -6 104497. 4485.99   8
  -2  -6   6 112361. 5602.57   7
  -2   6  -7 127.501 227.430   8
   2   6   7 439.580 357.519   7
  -2  -6   7-453.009 472.964   6
  -2  -7  -7 1123.70 495.118   2
  -2   7   7 1391.32 618.119   7
   2   7  -7 2518.14 757.020   8
  -2   7   7 1412.34 518.866   6
   2   7  -6 845.563 373.010   8
  -2   7   6 1873.99 733.738   7
  -2   7   6 1499.02 546.207   6
   2  -7   6 1027.56 341.840   4
  -2  -7  -6 1306.30 471.157   2
  -2   7   5 3888.57 1014.22   7
   2  -7   5 3505.99 560.412   4
  -2  -7  -5 3313.72 611.812   2
  -2   7   5 3895.98 769.488   6
   2   7  -5 4008.92 714.489   8
   2   7  -4 594.053 355.380   5
  -2   7   4 735.305 348.165   7
  -2  -7  -4 999.703 366.755   2
  -2   7   4 547.113 284.914   6
   2   7  -4 445.201 232.821   8
  -2   7   3 9292.11 1408.06   7
  -2   7   3 7759.54 872.875   6
  -2  -7  -3 6822.48 706.334   2
   2   7  -3 6628.66 660.298   8
   2   7  -3 7633.57 1009.99   5
   2   7  -2-14.7800 188.651   5
   2  -7   2 121.195 51.7873   1
  -2   7   2 372.166 357.148   7
   2   7  -2 313.700 107.673   8
  -2   7   2 16.9013 105.681   6
   2   7  -1 13392.3 688.729   8
  -2  -7  -1 12071.9 1241.25   8
   2   7  -1 12974.2 1056.66   5
  -2   7   1 9911.10 883.187   6
  -2  -7  -1 12107.1 620.739   4
  -2   7   1 10897.9 1131.80   8
  -2   7   0 70.2447 143.923   8
  -2  -7   0 21.4397 9.70882   8
  -2   7   0-46.5241 121.183   2
   2   7   0 75.3805 53.5806   5
  -2  -7   0-50.1341 48.1428   4
  -2  -7   1 13416.0 571.961   3
  -2  -7   1 12639.5 569.373   8
   2   7   1 14104.1 921.123   7
  -2   7  -1 13410.5 1011.86   8
  -2  -7   1 13735.0 875.009   4
   2   7   1 13819.1 974.795   5
  -2  -7   1 13654.7 1316.37   6
   2   7   2 94.4602 87.9663   1
  -2   7  -2 280.873 72.5400   7
   2   7   2 15.0317 113.266   7
   2   7   2 25.6839 40.1139   5
   2  -7  -2 317.046 130.174   5
  -2  -7   2 53.8232 24.5630   4
  -2  -7   2 1.74097 102.490   6
  -2   7  -2 172.710 148.396   8
  -2   7  -3 6606.96 845.250   8
   2  -7  -3 6297.18 485.958   5
   2   7   3 7105.41 778.301   7
   2   7   3 7538.08 740.577   5
  -2  -7   3 9190.21 1558.71   6
  -2  -7   3 7969.88 822.785   4
   2   7   3 7892.05 894.810   1
  -2   7  -4 781.981 335.738   8
   2   7   4 1102.84 385.238   7
   2   7   4 543.799 192.316   5
  -2  -7   4 1026.03 548.287   6
  -2  -7   4 1088.19 328.595   4
   2   7   5 3185.91 492.040   5
   2   7   5 3370.19 658.495   7
  -2  -7   5 4840.05 1247.84   7
  -2   7  -5 3981.14 807.692   8
  -2  -7   5 3763.96 652.336   4
  -2  -7   5 3428.51 901.097   6
  -2   7  -6 1343.90 512.390   8
   2   7   6 495.780 283.067   7
  -2  -7   6 1247.23 548.407   7
  -2  -7   6 686.875 471.084   6
  -2  -7   6 979.751 361.712   4
   2   7   7 2185.37 647.267   7
  -2  -7   7 1718.86 625.728   9
  -2   7  -7 2000.72 711.672   8
  -2  -7   7 923.471 567.161   6
   2   8  -6 16960.8 1696.82   8
  -2  -8  -6 17623.4 1703.67   2
  -2   8   6 13291.6 1580.63   6
   2  -8   6 11779.7 1151.53   4
  -2   8   6 13086.6 1979.62   7
   2   8  -5 409.876 239.093   8
  -2   8   5 692.552 476.401   7
  -2   8   5 204.471 206.835   6
  -2  -8  -5 408.130 225.915   2
  -2   8   4 14354.8 1857.33   7
   2   8  -4 16983.8 1737.18   5
  -2  -8  -4 18069.2 1404.34   2
  -2   8   4 13900.9 1303.78   6
   2   8  -4 15772.7 1042.49   1
   2   8  -4 14854.0 1195.06   8
   2   8  -3 362.678 164.161   8
  -2  -8  -3 282.076 135.793   2
   2   8  -3 462.830 235.341   5
  -2   8   3 621.286 438.594   7
  -2   8   3 378.388 168.603   6
   2   8  -2 14101.7 1224.81   5
  -2   8   2 7687.27 1260.01   7
   2   8  -2 13265.9 820.808   8
   2  -8   2 6235.04 668.540   3
  -2   8   2 6848.25 727.285   6
   2   8  -1 186.967 90.6524   8
   2  -8   1 260.350 146.677   3
  -2  -8  -1 277.149 162.463   8
  -2   8   1 279.595 321.905   7
  -2  -8  -1 133.323 57.2401   4
  -2   8   1 248.405 125.896   6
  -2   8   1 306.315 282.184   8
   2   8  -1 266.677 182.593   5
  -2  -8   0 16516.2 766.106   8
  -2  -8   0 15397.9 849.803   4
   2   8   0 15686.9 1070.03   5
  -2   8   0 16202.6 1194.15   8
  -2   8   0 15247.1 665.402   6
  -2  -8   1 272.804 89.2601   3
  -2   8  -1 309.981 174.248   8
  -2  -8   1 222.317 82.7317   8
   2   8   1 280.536 161.611   1
  -2   8  -1 303.481 260.938   7
  -2   8  -1 306.765 117.984   6
   2   8   1 144.145 94.1032   5
  -2  -8   1 188.801 104.694   4
   2   8   1 275.237 150.544   7
  -2  -8   1 283.002 191.844   6
  -2   8  -1 115.152 149.950   2
  -2   8  -2 13762.1 1139.31   8
   2   8   2 6229.38 690.955   7
  -2   8  -2 12203.2 539.467   7
   2  -8  -2 14958.7 979.051   5
  -2   8  -2 12865.8 372.355   7
  -2   8  -2 11049.3 682.852   2
   2   8   2 5820.45 719.394   1
  -2  -8   2 5746.75 651.844   4
   2  -8  -2 17946.1 1291.29   6
  -2  -8   2 4978.95 1273.86   6
   2   8   2 5599.98 603.714   5
   2   8   3 199.497 150.259   1
  -2   8  -3 384.814 217.002   8
   2   8   3 209.301 85.5082   7
   2   8   3 102.289 85.3116   5
  -2  -8   3 161.599 41.5493   4
  -2  -8   3-46.6235 330.720   6
   2  -8  -3 320.926 75.6686   5
   2   8   4 12732.3 1191.36   7
  -2   8  -4 15836.2 1483.18   8
  -2  -8   4 13863.9 1794.35   6
   2   8   4 12077.3 887.822   5
  -2  -8   4 13635.3 1194.48   4
  -2   8  -5 259.774 172.541   8
   2   8   5 163.510 147.765   7
  -2  -8   5 144.371 231.510   7
  -2  -8   5 300.036 154.938   6
  -2  -8   5 562.255 258.138   4
   2   8   6 12817.8 1492.24   7
  -2  -8   6 10372.4 1673.82   6
  -2  -8   6 12739.1 1317.07   4
  -2   9   6 175.548 165.720   7
   2   9  -6 22.4801 93.9607   8
  -2   9   6-93.3587 181.830   6
   2  -9   6-107.301 127.530   4
  -2  -9  -6-169.540 202.043   2
   2   9  -5 416.985 220.147   8
  -2   9   5 600.881 466.867   7
  -2   9   5 569.440 265.231   6
   2   9  -5 670.674 238.311   1
  -2  -9  -5 359.163 247.930   2
   2   9  -4 3.97388 95.9229   8
  -2   9   4-11.4088 140.721   7
   2   9  -4-39.3536 150.919   5
  -2  -9  -4 228.306 241.192   2
  -2   9   4 200.371 189.218   6
   2   9  -4 74.8559 75.2375   1
  -2  -9  -3 484.124 218.103   2
   2   9  -3 664.630 225.128   8
   2   9  -3 429.008 209.677   5
  -2   9   3 551.701 344.567   7
  -2   9   3 325.204 157.221   6
   2   9  -3 441.349 170.349   1
   2   9  -2 14.4171 88.2113   5
   2  -9   2 3.58180 46.0134   3
  -2   9   2 175.858 240.386   7
  -2   9   2 198.301 140.266   6
   2   9  -2 85.5577 68.9922   8
   2   9  -1 810.499 228.308   8
  -2   9   1 703.301 345.163   8
   2  -9   1 940.969 250.721   3
   2   9  -1 743.666 263.567   5
  -2   9   1 872.212 458.276   7
  -2  -9  -1 860.754 181.612   4
  -2   9   1 1119.96 236.219   6
  -2  -9   0 60.6691 57.8070   8
   2   9   0 36.5687 42.8103   5
  -2   9   0-71.4594 169.231   8
  -2   9   0-67.2700 55.7770   7
  -2  -9   0 59.0772 51.7502   6
   2  -9   0-93.0827 74.6040   3
  -2  -9   0 9.87365 35.3918   4
   2   9   0 29.5014 27.8425   1
  -2   9   0 49.7785 26.4260   6
  -2   9  -1 943.007 287.208   8
   2   9   1 784.146 250.236   1
  -2  -9   1 799.874 170.423   3
  -2  -9   1 578.604 147.585   8
   2   9   1 631.006 208.976   5
   2   9   1 943.105 233.286   7
  -2   9  -1 439.877 180.671   7
  -2   9  -1 885.522 194.552   6
  -2  -9   1 560.956 189.626   4
  -2   9  -1 572.592 222.236   2
  -2  -9   1 486.360 262.435   6
   2  -9  -2 146.303 112.806   6
  -2   9  -2-28.2209 117.916   8
   2   9   2 21.7320 29.6808   1
   2   9   2 73.6363 38.5804   7
   2  -9  -2 198.939 131.846   5
  -2   9  -2 62.9221 26.5515   2
   2   9   2 129.261 92.6482   5
  -2  -9   2 58.8934 104.749   4
  -2  -9   2 18.5925 152.937   6
  -2   9  -3 416.622 228.925   8
   2   9   3 495.858 213.963   7
  -2  -9   3 381.639 212.302   4
  -2  -9   3 645.043 352.333   6
   2   9   3 191.712 54.5666   1
   2   9   3 416.618 168.557   5
  -2   9  -4 156.276 129.275   8
   2   9   4 228.995 131.542   5
   2   9   4 156.596 112.796   7
  -2  -9   4 27.1390 157.499   6
  -2  -9   4-73.2277 128.300   4
   2   9   5 190.778 137.268   7
  -2   9  -5 625.407 337.464   8
  -2  -9   5 273.574 113.719   6
  -2  -9   5 271.398 141.162   4
   2   9   6 275.351 255.028   7
  -2  -9   6 335.786 276.560   6
  -2   9  -6-146.165 281.281   8
  -2  -9   6-230.473 268.827   4
  -2  10   6 7624.85 1531.26   7
   2  10  -6 8209.81 1167.02   8
  -2 -10  -6 8774.32 1259.65   2
  -2  10   6 7785.36 1168.95   6
   2 -10   6 7471.13 981.494   4
   2  10  -5 250.322 150.156   8
  -2  10   5 570.178 288.786   7
  -2  10   5 902.182 396.686   6
  -2 -10  -5 326.326 266.212   2
   2  10  -5 713.730 239.346   1
   2  10  -4 15813.3 1284.75   8
   2  10  -4 16693.1 1088.49   1
  -2  10   4 15935.3 1986.78   7
  -2 -10  -4 18018.8 1418.91   2
  -2  10   4 16980.3 1437.20   6
   2  10  -4 18457.3 1868.87   5
   2  10  -3 258.304 158.089   8
  -2  10   3 1087.03 489.152   7
   2  10  -3 351.326 162.125   1
  -2 -10  -3 275.413 173.129   2
  -2  10   3 665.449 247.949   6
   2  10  -3 594.260 320.946   5
   2  10  -2 15251.5 1317.20   5
   2 -10   2 13435.0 1069.79   3
   2  10  -2 13214.1 935.830   1
  -2 -10  -2 13127.0 956.093   2
  -2  10   2 13642.2 1697.45   7
   2  10  -2 13666.6 919.824   8
  -2  10   2 15181.6 1008.91   6
  -2 -10  -2 13417.8 652.508   4
   2  10  -1 272.987 104.237   8
  -2  10   1 298.668 305.599   8
   2 -10   1 57.8075 40.6185   3
  -2  10   1 124.247 176.278   7
   2  10  -1 199.468 121.991   1
   2  10  -1 127.108 112.181   5
  -2  10   1 240.067 99.4655   6
  -2 -10  -1 36.7186 16.8197   4
   2  10   0 20778.7 1274.15   5
   2  10   0 20919.4 1229.14   1
   2 -10   0 20325.1 1394.69   3
  -2 -10   0 21164.2 1079.75   4
  -2  10   0 23122.0 1610.13   8
   2  10   0 23297.2 1231.00   7
  -2  10   0 16190.0 699.149   6
  -2 -10   0 20407.3 1356.53   6
  -2 -10   0 23286.3 1094.42   8
  -2  10   0 17658.6 1641.77   7
  -2 -10   1 161.815 76.9098   3
   2  10   1 38.6705 89.1337   7
   2  10   1 73.6636 98.9875   5
  -2  10  -1 76.1615 94.9015   8
  -2  10  -1 64.5939 17.7302   7
  -2 -10   1 42.8082 49.0142   8
   2  10   1 112.987 102.595   1
  -2  10  -1 110.191 69.6356   6
  -2  10  -1 111.655 103.037   2
  -2 -10   1 268.655 157.426   4
  -2 -10   1 421.838 348.286   6
   2  10   2 13829.3 1095.97   7
  -2  10  -2 14690.1 1258.92   8
   2  10   2 12881.2 1131.25   1
  -2 -10   2 13510.6 1050.10   4
  -2 -10   2 11978.2 1922.20   6
   2 -10  -2 16339.2 1052.40   6
   2  10   2 12740.6 889.186   5
   2  10   3 452.933 211.270   7
   2  10   3 637.973 263.341   1
  -2 -10   3 222.754 105.014   4
  -2 -10   3 629.014 462.354   6
  -2  10  -3 697.568 305.487   8
   2  10   3 367.566 135.082   5
   2  10   4 14982.4 865.054   5
  -2 -10   4 17150.0 1917.26   6
   2  10   4 14647.8 1365.73   7
  -2  10  -4 16051.2 1566.96   8
  -2 -10   4 15058.8 1316.57   4
  -2  10  -5 498.499 311.033   8
  -2 -10   5 132.008 165.856   6
  -2 -10   5 317.969 195.454   4
   2  10   6 6887.23 1168.83   7
  -2 -10   6 6868.67 1375.63   6
  -2 -10   6 8406.87 1121.76   4
  -2  10  -6 8264.20 1333.79   8
  -2 -10   6 7175.91 1137.57   9
   2  11  -6 59.2472 111.719   8
  -2  11   6 329.397 295.264   7
  -2  11   6 261.816 128.062   6
   2 -11   6 297.149 195.680   4
  -2 -11  -6 331.551 443.042   2
   2  11  -5 1018.87 359.759   8
  -2  11   5 1619.46 737.871   7
  -2  11   5 498.063 232.572   6
  -2 -11  -5 938.340 379.968   2
   2  11  -4-98.5689 188.714   5
   2  11  -4 176.305 96.6068   1
   2  11  -4 99.0173 47.4044   8
  -2  11   4 7.56959 80.1880   7
  -2  11   4 10.3207 79.5508   6
  -2 -11  -4 68.0941 121.475   2
   2  11  -3 2219.62 381.245   1
   2  11  -3 2096.77 550.119   5
  -2  11   3 2784.15 827.969   7
  -2  11   3 2803.43 498.646   6
  -2 -11  -3 2233.65 474.277   2
   2  11  -3 2112.03 423.220   8
   2  11  -2-22.6528 76.5544   5
   2 -11   2 197.020 194.397   3
  -2  11   2-64.9581 189.879   7
  -2 -11  -2 138.586 113.245   2
   2  11  -2 143.852 112.722   1
   2  11  -2 222.081 118.921   8
  -2  11   2 123.787 53.4858   6
  -2 -11  -2 59.1841 45.9288   4
   2  11  -1 4546.26 646.960   8
  -2  11   1 4838.57 965.827   7
   2 -11   1 4617.71 655.662   3
   2  11  -1 4616.94 569.984   1
  -2  11   1 5260.80 399.447   6
  -2 -11  -1 4329.63 464.765   4
   2 -11   1 4836.92 557.819   1
  -2  11   1 4014.02 817.457   8
   2  11  -1 4550.06 652.807   5
  -2  11   0-163.276 149.573   8
   2 -11   0 86.9511 115.342   3
   2  11   0 48.5992 98.4435   5
   2  11   0-45.1684 118.855   1
   2  11   0 306.105 176.395   7
  -2 -11   0-148.859 177.686   6
  -2  11   0-53.4504 164.295   7
  -2 -11   0-6.22361 82.0218   4
   2  11   1 4655.69 652.573   1
  -2 -11   1 4398.01 466.008   3
   2  11   1 4126.61 529.203   5
  -2  11  -1 4175.69 535.162   7
  -2  11  -1 4335.42 707.744   8
  -2  11  -1 4389.55 519.975   2
  -2  11  -1 3324.59 408.199   6
  -2 -11   1 4595.53 583.533   4
   2  11   1 5064.01 639.967   7
  -2 -11   1 4491.49 1072.00   6
  -2  11  -2 13.2178 47.2709   8
   2 -11  -2 176.431 99.1872   5
   2  11   2 117.041 86.7557   5
  -2 -11   2 141.935 98.1037   3
   2  11   2 291.845 188.171   7
   2  11   2 169.398 124.217   1
  -2 -11   2 205.907 158.825   4
  -2 -11   2-24.2898 161.999   6
   2  11   3 1981.31 324.559   5
   2  11   3 2212.19 493.108   7
  -2  11  -3 2493.05 589.223   8
  -2 -11   3 2061.54 451.932   4
  -2 -11   3 2665.80 741.212   6
   2  11   4 181.753 76.9778   5
   2  11   4 345.693 264.695   7
  -2  11  -4 159.412 137.254   8
  -2 -11   4-5.69660 214.609   6
  -2 -11   4-200.769 164.119   4
  -2  11  -5 780.088 340.930   8
   2  11   5 579.576 313.085   7
  -2 -11   5 1587.51 581.257   6
  -2 -11   5 784.636 313.282   4
  -2  11  -6-154.099 244.862   8
   2  11   6 525.689 327.194   7
  -2 -11   6 581.827 373.155   6
  -2 -11   6 260.605 260.997   9
  -2 -11   6 347.962 266.277   4
  -2  12   6 90021.0 5453.83   7
  -2 -12  -6 82522.1 4063.14   2
   2  12  -6 77242.6 3689.15   8
   2 -12   6 82415.5 3550.08   4
  -2  12   5 284.755 235.921   7
   2  12  -5 347.291 208.544   8
  -2  12   5 230.119 132.579   6
  -2 -12  -5 178.094 174.194   2
   2  12  -4 123309. 3713.61   8
  -2 -12  -4 139115. 4190.61   2
  -2  12   4 136819. 6075.64   7
  -2  12   4 144281. 4155.35   6
   2  12  -4 132536. 3094.76   1
   2  12  -4 140048. 5291.33   5
   2  12  -3 294.005 174.834   8
   2  12  -3 331.016 203.289   5
  -2  12   3 350.513 258.760   7
   2  12  -3 424.661 194.044   1
  -2 -12  -3 637.860 264.810   2
  -2  12   3 331.154 173.858   6
   2  12  -2 196973. 3988.99   8
   2  12  -2 202897. 3931.32   1
  -2  12   2 199401. 6678.56   7
  -2 -12  -2 204504. 4070.31   2
  -2  12   2 208228. 3428.99   6
  -2 -12  -2 205722. 3024.40   4
   2 -12   2 204489. 4513.62   3
   2  12  -2 209600. 5047.42   5
  -2  12   1 291.511 238.503   8
   2  12  -1 131.769 63.5956   1
   2  12  -1 208.616 126.350   8
   2 -12   1 253.127 135.670   3
   2  12  -1 366.461 208.200   5
   2 -12   1 276.698 105.415   1
  -2  12   1 476.728 333.760   7
  -2 -12  -1 293.268 144.189   4
   2  12   0 187330. 3938.27   5
   2  12   0 182237. 3958.00   1
  -2  12   0 210094. 5408.10   8
  -2 -12   0 188011. 3524.92   4
  -2 -12   0 177366. 4695.61   6
   2  12   0 200422. 3902.93   7
  -2 -12   0 200146. 2621.18   9
   2 -12   0 194146. 4789.46   3
  -2  12  -1 251.413 208.541   8
   2  12   1 368.616 188.532   7
   2  12   1 536.824 234.212   1
  -2  12  -1 276.038 127.763   7
   2 -12  -1 254.740 136.681   3
  -2  12  -1 219.981 95.5681   2
  -2 -12   1 370.411 150.238   3
  -2 -12   1 322.347 158.358   4
  -2  12  -1 277.555 109.098   6
  -2 -12   1 223.954 176.968   6
   2  12   1 242.374 138.891   5
   2 -12  -2 223507. 3672.70   5
  -2  12  -2 211893. 5095.26   8
   2  12   2 208185. 4563.25   7
   2  12   2 205161. 4833.81   1
  -2 -12   2 207220. 4376.04   4
  -2 -12   2 212862. 3427.37   3
   2  12   2 212044. 3719.33   5
  -2  12  -3 251.097 166.584   8
   2  12   3 409.405 154.551   5
   2  12   3 292.138 212.527   7
  -2 -12   3 515.186 252.377   4
  -2 -12   3 273.825 149.040   6
  -2  12  -4 136546. 4730.95   8
   2  12   4 124548. 4292.12   7
  -2 -12   4 143010. 5122.00   6
  -2 -12   4 133796. 4170.21   4
  -2  12  -5 284.559 159.541   8
   2  12   5 425.439 293.330   7
  -2 -12   5 37.8270 150.355   6
  -2 -12   5 652.836 307.855   4
  -2 -12   5 71.0845 139.538   9
  -2  12  -6 82471.6 4346.28   8
   2  12   6 83733.3 4412.80   7
  -2 -12   6 91098.5 4767.74   6
  -2 -12   6 86781.1 3829.39   4
  -2 -12   6 87368.5 4076.46   9
   2  13  -6 1071.60 437.551   8
  -2  13   6 945.464 552.655   7
   2 -13   6 1041.04 387.561   4
  -2 -13  -6 1099.23 495.382   2
   2  13  -5 4111.02 764.471   8
  -2  13   5 3646.78 1031.69   7
  -2 -13  -5 3952.84 787.198   2
   2  13  -4 304.003 211.233   8
   2  13  -4 372.367 161.338   1
  -2  13   4 469.949 230.714   6
  -2 -13  -4 355.716 246.532   2
  -2  13   4 814.287 457.052   7
   2  13  -3 6030.77 961.970   5
   2  13  -3 5165.09 707.046   8
  -2 -13  -3 6683.45 875.819   2
  -2  13   3 6686.50 752.654   6
   2  13  -3 5884.72 666.978   1
  -2  13   3 4929.33 1111.82   7
   2  13  -2 228.176 100.403   1
   2  13  -2 215.402 135.876   5
   2 -13   2 157.481 187.608   3
  -2  13   2 83.8248 163.055   7
  -2 -13  -2 288.629 138.961   2
  -2 -13  -2 298.328 121.527   4
   2  13  -2 272.319 140.676   8
   2  13  -1 5884.38 888.652   8
   2 -13   1 5677.45 791.179   3
   2  13  -1 5040.93 652.596   1
  -2  13   1 3988.83 868.762   7
  -2 -13  -1 5334.00 571.680   4
  -2  13   1 5088.08 1043.28   8
   2  13  -1 5405.15 736.946   5
   2 -13   0 11.2258 48.0703   3
  -2 -13   0 71.7222 44.7524   9
   2  13   0 34.6237 116.330   1
   2  13   0-0.49852 114.202   5
  -2  13   0-153.680 108.207   8
  -2  13   0 6.66533 80.1661   7
  -2 -13   0 62.9282 40.9318   6
  -2 -13   0 89.4830 27.7886   3
  -2 -13   0 12.3144 30.2922   4
  -2  13  -1 5810.07 611.312   7
  -2 -13   1 4992.58 558.625   3
  -2  13  -1 6717.60 957.626   8
   2  13   1 5143.22 685.191   7
   2  13   1 5363.97 758.065   1
  -2 -13   1 5545.41 675.401   4
   2  13   1 5049.66 622.681   5
  -2  13  -1 3549.10 198.693   6
  -2 -13   1 3805.11 986.119   6
   2 -13  -1 4864.78 879.980   3
  -2  13  -2 82.0806 37.2204   8
   2  13   2 222.069 121.280   5
  -2 -13   2 160.204 103.045   3
   2  13   2 129.395 194.004   7
  -2 -13   2 326.911 232.340   4
  -2 -13   2-36.0417 131.819   6
   2  13   2 119.028 135.416   1
   2  13   3 5917.84 882.664   7
  -2  13  -3 5803.92 933.127   8
   2  13   3 6289.40 587.663   5
  -2 -13   3 6806.44 1085.34   6
  -2 -13   3 5448.10 784.276   4
  -2 -13   4 683.308 292.278   9
  -2  13  -4 512.395 279.514   8
   2  13   4 571.013 308.975   7
  -2 -13   4 637.482 344.834   6
  -2 -13   4 433.422 223.230   4
  -2  13  -5 3998.58 904.679   8
   2  13   5 3459.06 844.951   7
  -2 -13   5 4626.03 872.311   4
  -2 -13   5 3884.08 878.318   6
  -2 -13   5 3982.21 779.512   9
  -2 -13   6 979.190 438.024   9
  -2  13  -6 1450.35 568.229   8
   2  13   6 1888.06 714.695   7
  -2 -13   6 1012.52 523.384   6
  -2 -13   6 1175.15 477.038   4
   2  14  -5 196.191 166.913   8
  -2  14   5 413.564 461.503   7
  -2 -14  -5 234.839 167.715   2
   2  14  -4 14734.0 1343.38   8
  -2 -14  -4 14448.9 1394.51   2
   2  14  -3 173.310 149.870   8
   2  14  -3 325.743 282.470   5
  -2  14   3-209.434 241.632   7
   2  14  -3 335.139 168.521   1
  -2 -14  -3 157.181 29.1566   2
   2  14  -2 16496.5 1320.94   8
   2 -14   2 14895.4 1307.29   3
  -2  14   2 12345.4 1712.43   7
  -2 -14  -2 16316.5 1243.61   2
   2  14  -2 15905.9 1156.60   1
  -2 -14  -2 16604.7 981.250   4
   2  14  -2 16668.4 1445.27   5
   2  14  -1 108.622 122.712   8
  -2  14   1-198.930 335.008   8
   2  14  -1-19.0733 61.2240   5
   2  14  -1-5.34539 47.5754   1
   2 -14   1 71.9973 125.716   3
  -2 -14  -1 104.811 67.0036   2
  -2 -14  -1-57.5594 126.818   4
   2  14   0 11874.8 1003.85   7
   2  14   0 11534.0 1026.25   5
  -2  14   0 13468.0 1503.45   8
  -2  14   0 11270.8 1189.35   7
   2  14   0 12293.6 1108.41   1
  -2 -14   0 11322.6 940.602   4
  -2 -14   0 15438.1 1585.67   6
  -2 -14   0 10809.7 1021.31   3
   2 -14   0 11399.8 1278.14   3
  -2 -14   1 46.9797 52.7239   9
   2 -14  -1 83.8328 103.265   3
   2  14   1 156.941 142.300   7
  -2  14  -1 354.830 264.020   8
   2  14   1 150.172 125.428   5
  -2  14  -1 202.279 131.727   7
   2  14   1 3.25514 84.4662   1
  -2 -14   1 188.362 143.196   4
  -2 -14   1 32.7505 46.1808   3
  -2 -14   1 215.426 248.661   6
  -2  14  -2 17384.7 1609.83   8
   2  14   2 16337.7 1061.39   5
  -2 -14   2 15766.3 1035.64   3
   2  14   2 16277.0 1365.45   7
  -2 -14   2 16317.0 1299.43   4
  -2 -14   2 16717.0 1654.61   6
   2  14   2 15526.7 1431.04   1
  -2 -14   2 16906.0 1195.69   9
  -2 -14   3 291.461 183.991   9
  -2  14  -3 332.646 227.280   8
   2  14   3 157.500 102.192   5
   2  14   3 243.323 216.418   7
  -2 -14   3 29.0319 102.512   4
  -2  14  -4 13063.8 1551.12   8
   2  14   4 10274.9 1349.38   7
  -2 -14   4 8672.63 1069.00   9
  -2 -14   4 10235.6 1280.14   6
  -2 -14   4 9528.99 1164.39   4
  -2  14  -5 366.035 317.764   8
   2  14   5 200.881 268.921   7
  -2 -14   5 424.873 294.330   9
  -2 -14   5-208.388 194.189   6
  -2 -14   5 434.239 278.644   4
   2  15  -5 596.756 295.290   8
  -2  15   5 730.134 423.229   7
  -2 -15  -5 551.774 308.914   2
   2  15  -4 125.955 80.3766   8
  -2  15   4 646.241 527.564   7
  -2 -15  -4 73.5233 210.051   2
   2  15  -3 1293.41 397.733   8
   2  15  -3 1231.80 448.370   5
   2  15  -3 1227.63 325.570   1
  -2  15   3 550.929 359.796   7
  -2 -15  -3 1276.28 377.845   2
   2 -15   2 0.72252 81.4479   3
   2  15  -2 106.052 85.1985   1
  -2  15   2 167.589 333.257   7
   2  15  -2 91.3411 111.598   8
  -2 -15  -2 52.8000 96.5970   2
  -2 -15  -2 83.0021 70.5418   4
   2  15  -2-47.2475 128.391   5
  -2 -15  -1 823.607 310.518   6
   2  15  -1 651.164 308.403   8
   2  15  -1 1054.43 357.862   5
   2 -15   1 821.997 339.122   3
  -2  15   1 618.509 370.474   7
  -2 -15  -1 1145.33 317.419   2
  -2  15   1 963.114 499.694   8
  -2 -15  -1 791.777 254.428   4
   2  15  -1 661.480 246.711   1
  -2  15   0 287.680 219.726   8
   2  15   0 23.9687 68.3092   5
   2 -15   0 75.4716 142.921   3
   2  15   0-68.5750 155.461   1
   2  15   0 226.822 166.763   7
  -2  15   0 49.6789 109.399   7
  -2 -15   0-15.7636 75.3761   3
  -2 -15   0 51.6712 106.161   4
  -2 -15   1 881.769 243.474   9
   2  15   1 815.666 272.448   5
  -2  15  -1 1159.17 407.545   8
  -2 -15   1 942.753 281.498   3
   2  15   1 642.844 273.903   1
  -2  15  -1 1013.43 260.768   7
   2  15   1 823.995 287.761   7
  -2 -15   1 781.668 258.982   4
  -2 -15   1 420.927 317.075   6
   2 -15  -1 585.430 323.134   3
  -2 -15   2 151.389 124.853   9
   2  15   2 263.389 143.841   5
  -2 -15   2 69.1769 106.036   4
  -2 -15   2 240.173 131.754   3
   2  15   2-58.1395 184.205   7
  -2  15  -2-79.4555 118.093   8
   2  15   2 194.366 184.537   1
  -2 -15   2 108.398 201.758   6
  -2 -15   3 854.405 301.863   9
  -2  15  -3 1121.39 435.817   8
   2  15   3 930.652 362.451   7
  -2 -15   3 1350.26 399.641   4
  -2 -15   3 1286.21 422.571   6
  -2  15  -4-13.1713 82.2187   8
   2  15   4 77.2931 229.372   7
  -2 -15   4 160.782 173.638   9
  -2 -15   4-101.078 175.569   6
  -2 -15   4 2.63147 42.1623   4
  -2 -15   5 885.439 373.393   9
  -2  15  -5 307.956 150.978   8
   2  15   5 897.438 452.765   7
  -2 -15   5 464.047 259.073   6
  -2 -15   5 683.335 363.263   4
   2  16  -5 130.103 153.914   8
  -2  16   5 220.736 369.510   7
  -2 -16  -5 706.348 347.814   2
   2  16  -4 15540.9 1438.61   8
  -2  16   4 16458.2 2295.73   7
  -2 -16  -4 15823.3 1530.79   2
   2  16  -3 404.243 262.684   8
  -2  16   3 740.711 434.432   7
   2  16  -3 335.499 202.195   1
  -2 -16  -3 279.390 213.235   2
   2  16  -2 25737.4 1893.86   8
   2  16  -2 23357.4 1812.51   5
   2 -16   2 25859.1 1871.91   3
  -2 -16  -2 28339.1 1800.00   2
   2  16  -2 26741.2 1618.94   1
  -2 -16  -2 26525.6 1400.96   4
   2  16  -1 232.349 174.691   1
   2  16  -1 118.811 133.589   5
   2 -16   1 6.72525 114.800   3
  -2  16   1-71.0210 62.6964   7
  -2  16   1 279.096 279.450   8
  -2 -16  -1 323.706 198.912   2
   2  16  -1 1.18000 100.552   8
  -2 -16  -1 117.907 132.667   4
  -2 -16  -1-89.2270 189.080   6
   2 -16   0 18926.9 1778.90   3
   2  16   0 20727.7 1477.49   5
  -2  16   0 20883.4 2063.36   8
  -2  16   0 19902.4 1607.25   7
  -2 -16   0 21454.9 1319.17   2
   2  16   0 19857.6 1534.51   1
  -2 -16   0 20180.1 1372.23   4
  -2 -16   0 26659.7 2201.40   6
  -2 -16   0 21189.5 1542.65   3
   2  16   1 180.878 137.261   1
   2 -16  -1 87.9359 58.9584   3
  -2  16  -1 200.784 214.526   8
  -2 -16   1 161.092 126.973   3
   2  16   1 176.091 181.819   7
  -2  16  -1 167.764 101.580   7
   2  16   1-56.3266 74.0035   5
  -2 -16   1 216.033 170.316   4
  -2 -16   1-80.6997 39.7538   6
  -2  16  -2 29298.5 2291.26   8
   2  16   2 28666.6 1479.59   5
   2  16   2 25567.6 1827.35   7
  -2 -16   2 25678.6 1763.22   4
  -2 -16   2 29376.5 1862.23   6
  -2 -16   2 27069.9 1481.67   3
  -2 -16   2 28969.3 1625.94   9
  -2 -16   3 263.759 197.738   9
  -2  16  -3 561.812 356.648   8
   2  16   3 146.026 191.076   7
  -2 -16   3 299.593 191.497   4
  -2 -16   3 202.598 43.5115   6
   2  16   4 14882.0 1715.54   7
  -2  16  -4 15606.2 1787.81   8
  -2 -16   4 16247.5 1510.78   6
  -2 -16   4 15626.9 1574.44   4
  -2 -16   4 16858.4 1545.33   9
  -2 -16   5 215.849 214.404   9
  -2  16  -5 240.201 279.616   8
   2  16   5 555.219 360.126   7
  -2 -16   5 187.797 148.230   6
  -2 -16   5 211.953 196.894   4
   2  17  -4 229.395 223.384   8
  -2  17   4 161.913 107.935   7
  -2 -17  -4-105.587 29.1450   2
   2  17  -3 643.134 295.914   8
  -2  17   3 958.107 609.137   7
  -2 -17  -3 554.586 206.237   2
   2  17  -2 10.8874 74.6305   8
   2  17  -2 21.8850 96.7165   5
   2  17  -2-4.85289 59.3481   1
   2 -17   2 65.5633 100.252   3
  -2  17   2 172.094 259.686   7
  -2 -17  -2-217.355 258.883   2
  -2 -17  -2 69.3384 25.8638   4
   2  17  -1 727.494 295.758   5
   2 -17   1 796.806 363.177   3
  -2  17   1 466.284 311.562   7
   2  17  -1 662.870 245.133   1
  -2 -17  -1 1049.53 354.479   2
  -2 -17  -1 599.623 223.572   4
   2  17  -1 371.511 267.715   8
  -2 -17  -1 1014.24 375.712   6
  -2  17   1 186.209 226.752   8
  -2  17   0-30.2686 100.019   8
   2  17   0-57.5375 13.4015   1
   2 -17   0 44.0164 137.298   3
   2  17   0-5.57365 67.0361   5
  -2  17   0 7.58388 103.565   7
  -2 -17   0 30.9914 74.5334   2
  -2 -17   0 118.229 130.057   3
  -2 -17   0 110.241 136.204   4
  -2 -17   0 78.5131 199.480   6
  -2  17  -1 1222.31 536.493   8
   2  17   1 503.953 223.350   5
  -2 -17   1 560.677 238.793   3
   2 -17  -1 606.999 353.914   3
   2  17   1 499.694 261.346   7
   2  17   1 759.125 331.708   1
  -2  17  -1 680.213 200.688   7
  -2 -17   1 677.445 211.827   2
  -2 -17   1 692.221 281.962   4
  -2 -17   1 926.132 344.853   6
  -2  17  -2 50.0847 110.135   8
   2  17   2 86.4198 93.2469   5
  -2 -17   2 41.7093 65.3434   3
   2  17   2 191.133 177.930   7
  -2 -17   2 128.251 91.0995   2
  -2 -17   2-189.115 191.021   4
  -2 -17   2 112.563 107.043   6
  -2 -17   2 245.771 142.884   9
  -2 -17   3 1034.09 325.777   9
  -2  17  -3 569.819 349.619   8
   2  17   3 670.623 368.128   7
  -2 -17   3 692.033 285.727   6
  -2 -17   3 573.627 327.330   4
   2  17   4-61.8234 253.152   7
  -2  17  -4-150.527 220.806   8
  -2 -17   4 107.267 140.218   9
  -2 -17   4 99.5054 194.053   6
  -2 -17   4 170.734 217.804   4
  -2  18   4 84631.3 5451.16   7
  -2 -18  -4 68130.8 3341.59   2
   2  18  -3 96.8105 127.713   8
  -2  18   3-129.193 314.535   7
  -2 -18  -3-103.542 151.785   2
   2 -18   2 96438.2 3915.32   3
   2  18  -2 91169.9 4090.70   8
  -2 -18  -2 98775.8 3554.55   2
   2  18  -2 99037.5 3284.54   1
   2  18  -1 377.848 337.972   8
   2 -18   1 70.8044 125.522   3
  -2  18   1-23.3386 38.6527   7
   2  18  -1 281.144 141.074   5
  -2  18   1-97.4493 133.594   8
  -2 -18  -1 182.938 146.189   2
  -2 -18  -1 365.020 224.038   4
   2  18  -1 244.314 169.455   1
   2 -18   0 105194. 4535.24   3
  -2  18   0 133907. 5792.17   8
  -2  18   0 114836. 3869.35   7
   2  18   0 127354. 3836.26   5
  -2 -18   0 129275. 3569.82   2
  -2 -18   0 118830. 3676.81   4
   2  18   0 118778. 4056.49   1
  -2 -18   0 125312. 4026.12   3
  -2  18  -1 236.585 312.223   8
   2 -18  -1 336.461 245.400   3
   2  18   1 312.344 205.608   5
  -2 -18   1 374.492 205.082   3
   2  18   1 126.494 114.761   7
  -2 -18   1 323.305 176.425   2
  -2 -18   1 272.302 197.255   4
   2  18   2 106687. 3005.97   5
  -2 -18   2 100122. 3096.92   3
   2  18   2 92918.6 3740.52   7
  -2 -18   2 101990. 2733.63   2
  -2 -18   2 92311.0 3572.25   4
  -2  18  -2 99944.7 4538.37   8
   2 -18  -2 110718. 4821.11   3
  -2  18  -3 208.603 116.222   8
   2  18   3 277.166 206.212   7
  -2 -18   3 145.693 144.301   4
  -2 -18   3 193.941 155.506   9
  -2  18  -4 72360.1 4018.20   8
  -2 -18   4 78344.9 3420.89   9
   2  18   4 78333.2 4234.30   7
  -2 -18   4 78827.3 3773.17   4
  -2  19   4-134.332 306.178   7
  -2 -19  -4 586.101 351.335   2
  -2  19   3 2609.74 913.750   7
   2  19  -3 3157.47 722.475   8
  -2 -19  -3 3008.42 685.280   2
   2  19  -2 142.256 174.838   1
   2  19  -2 5.97307 221.862   8
  -2  19   2 302.129 303.095   7
  -2 -19  -2 84.4181 136.469   2
   2 -19   2 10.0145 149.478   3
  -2  19   1 2704.59 918.865   8
   2  19  -1 3924.71 1081.33   8
  -2  19   1 2087.41 642.697   7
  -2 -19  -1 3282.49 791.408   3
  -2 -19  -1 3442.02 615.415   4
   2  19  -1 3599.59 708.720   1
  -2 -19  -1 3700.53 699.697   2
   2 -19   1 2376.05 650.166   3
  -2  19   0 154.462 289.299   8
  -2 -19   0-4.78606 73.8942   3
   2 -19   0-50.6923 171.960   3
   2  19   0-95.8025 168.839   5
  -2  19   0 117.267 138.826   7
  -2 -19   0 108.801 116.873   2
   2  19   0-82.6019 175.193   1
  -2 -19   0 120.566 140.424   4
   2  19   1 3643.57 615.487   5
  -2  19  -1 3803.13 949.138   8
   2 -19  -1 3257.37 852.853   3
   2  19   1 3140.13 647.782   7
  -2 -19   1 3781.01 601.424   2
  -2 -19   1 3009.78 580.542   3
  -2 -19   1 3042.58 646.261   4
  -2  19  -2 197.620 93.8636   8
  -2 -19   2-183.888 149.118   3
   2  19   2-169.747 207.872   7
  -2 -19   2 51.4134 122.580   4
   2 -19  -2-20.5567 138.091   3
  -2  19  -3 3372.96 876.385   8
   2  19   3 2528.24 725.319   7
  -2 -19   3 3626.68 768.087   4
   2  19   4 104.568 18.4017   7
  -2 -19   4 151.856 118.237   4
  -2  20   3 30.8748 239.060   7
  -2 -20  -3 288.152 298.415   2
   2  20  -2 9982.72 1529.88   8
   2 -20   2 8104.96 1256.89   3
  -2 -20  -2 11109.1 1265.52   2
   2 -20   1-377.584 343.919   3
  -2  20   1-274.533 455.749   8
  -2 -20  -1 272.671 253.016   3
   2  20  -1-139.728 194.054   8
  -2  20   1-102.928 148.913   7
  -2 -20  -1 85.7851 148.935   2
  -2 -20  -1-130.773 157.448   4
   2 -20   0 8105.56 1343.63   3
  -2 -20   0 13438.5 1305.19   2
  -2 -20   0 11649.7 1267.63   4
  -2  20   0 12641.6 1950.42   8
  -2 -20   0 11134.5 1299.15   3
   2 -20  -1 99.9544 133.960   3
  -2  20  -1 315.057 327.758   8
  -2 -20   1-57.1740 147.180   3
   2  20   1 153.368 197.673   7
  -2 -20   1-77.8214 51.5975   2
  -2 -20   1 133.885 179.676   4
  -2  20  -2 12061.8 1724.41   8
   2  20   2 7803.81 1158.02   7
  -2 -20   2 9704.90 1029.43   3
  -2 -20   2 7330.04 1085.69   4
   2 -20  -2 11333.5 1644.14   3
  -2  20  -3 77.9601 221.936   8
   2  20   3-16.0366 202.942   7
  -2 -20   3-23.4671 70.5851   4
   2 -21   2-351.890 339.290   3
  -2  21   2-26.3466 207.264   7
  -2 -21  -2 304.016 227.775   2
  -2  21   1 1502.84 759.398   8
   2  21  -1 864.615 490.338   8
  -2 -21  -1 1759.03 675.218   3
   2 -21   1 1805.43 637.239   3
  -2  21   1 1237.99 498.125   7
  -2 -21  -1 1839.58 502.541   2
  -2  21   0-1.94233 108.764   8
  -2 -21   0 161.427 146.453   3
   2 -21   0 158.286 58.6440   3
  -2 -21   0-162.874 193.220   2
  -2 -21   0 253.967 232.184   4
   2 -21  -1 1328.56 547.081   3
   2  21   1 1589.16 499.599   7
  -2 -21   1 1986.93 465.275   2
  -2 -21   1 1537.18 487.614   4
  -2 -21   1 1402.81 435.956   3
  -2  21  -1 1729.15 694.078   8
   2 -21  -2-5.68008 70.6517   3
  -2 -21   2 38.3706 25.3491   3
  -2  21  -2-290.388 412.780   8
   2  21   2-24.4708 182.865   7
  -2 -21   2 65.8702 120.273   4
  -2 -22  -1 42.9696 206.907   3
   2 -22   1 54.1471 210.842   3
  -2 -22  -1-2.59486 100.004   2
   2 -22   0 25191.9 2539.41   3
  -2  22   0 27916.3 3220.12   8
  -2 -22   0 30643.4 1998.26   2
  -2 -22   0 29668.4 2255.84   3
  -2 -22   0 27090.1 2136.50   4
  -2  22  -1 397.718 406.616   8
  -2 -22   1 73.3157 95.3402   3
   2 -22  -1 321.091 261.042   3
   2  22   1 23.2961 112.933   7
  -2 -22   1 58.0990 145.221   4
  -3   0   0 1.96958 16.1792   3
  -3   0   0 50.8253 41.7154   8
   3   0   0-8.00066 42.0463   8
   3   0   0 30.5229 89.5234   5
  -3   0   1-104.116 80.5737   6
   3   0  -1-40.5006 46.1921   8
   3   0  -1-5.13249 26.6960   3
  -3   0  -1-31.5011 48.9591   3
   3   0  -1 33.2466 153.138   5
   3   0   1 7.68262 21.5146   1
  -3   0  -1-36.5683 53.5258   8
  -3   0  -2 80.3383 75.7530   8
   3   0  -2 91.6527 125.609   8
   3   0  -2-135.997 117.822   5
   3   0   2-47.7821 80.0717   1
  -3   0   2-81.9735 141.493   6
  -3   0  -3 18.2528 42.7115   8
   3   0  -3 58.2785 57.5900   5
   3   0   3-49.7815 106.399   1
  -3   0   3 74.9340 158.696   6
  -3   0  -4-79.9626 131.506   8
   3   0  -4 70.6111 115.246   5
   3   0   4 65.1119 106.154   7
   3   0   4-14.4169 90.5430   1
  -3   0  -4 41.0703 48.5536   2
  -3   0   4 124.094 166.572   6
   3   0  -5 223.009 191.802   5
  -3   0  -5-83.5298 142.565   8
  -3   0   5 194.079 208.882   7
  -3   0  -5 258.044 167.946   2
  -3   0   5 433.855 351.568   6
  -3   0  -6 180.756 209.392   8
   3   0   6-107.220 55.4045   7
  -3   0   6-157.902 117.647   7
  -3   0   6 63.7977 195.738   6
  -3   0  -6 45.0268 135.837   2
  -3   0  -7-1.31987 56.2356   8
  -3   0   7-137.369 327.555   7
  -3   0   7 316.502 362.913   6
  -3  -1  -7 8650.06 1411.35   8
  -3   1   7 7682.99 1541.16   7
  -3   1   7 8149.29 1449.05   6
  -3  -1  -6 283.357 240.519   8
  -3   1   6 112.359 229.616   7
  -3   1   6 523.365 427.453   6
  -3  -1  -6 666.747 267.534   2
  -3   1   5 8768.26 1512.64   7
  -3  -1  -5 10362.5 1210.86   8
  -3  -1  -5 13368.6 1113.05   2
  -3   1   5 9853.36 1377.92   6
   3   1  -5 12525.1 1429.27   5
  -3  -1  -4 642.742 281.887   8
   3   1  -4 1291.73 462.788   5
  -3  -1  -4 875.245 257.884   2
  -3   1   4 1123.13 457.132   6
   3  -1   4 768.300 256.578   1
   3  -1   3 3476.61 478.360   1
   3   1  -3 3827.45 736.856   5
  -3  -1  -3 4901.70 653.702   8
  -3   1   3 3986.84 886.194   6
  -3  -1  -2 358.847 130.963   8
   3   1  -2 179.474 156.722   5
   3  -1   2 536.736 194.401   1
   3   1  -2 776.350 303.794   8
  -3   1   2 298.257 225.766   6
  -3   1   1 1993.37 390.811   6
   3   1  -1 3087.12 300.873   8
  -3  -1  -1 2888.05 322.846   8
   3  -1   1 1393.45 265.529   8
   3  -1   1 1785.90 329.460   1
   3   1  -1 2642.84 676.855   5
  -3   1   0 271.513 97.8005   3
  -3  -1   0 234.055 73.0096   8
  -3   1   0 314.698 115.570   8
  -3  -1   0 221.808 60.3239   3
   3  -1   0 274.011 110.213   8
   3   1   0 283.976 80.9007   8
   3   1   0 309.201 293.594   5
   3  -1   0 246.271 247.204   5
   3  -1  -1 3043.80 275.777   3
  -3  -1   1 1691.53 385.186   6
   3  -1  -1 3351.93 441.506   8
  -3   1  -1 3100.65 325.942   3
  -3   1  -1 2754.06 355.834   8
   3  -1  -1 3541.03 747.159   5
   3   1   1 1763.53 340.936   1
   3   1   1 1228.26 538.236   5
   3  -1  -2 730.821 309.247   8
   3  -1  -2 284.458 156.827   5
   3   1   2 504.448 179.436   1
  -3  -1   2 599.829 337.949   6
  -3   1  -2 547.160 198.564   8
  -3   1  -3 5283.10 701.376   8
   3  -1  -3 3234.60 619.766   5
   3   1   3 2823.83 456.842   1
  -3  -1   3 3812.03 918.123   6
   3  -1  -4 508.102 261.609   5
   3   1   4 747.822 271.330   1
   3   1   4 861.072 237.599   7
  -3   1  -4 998.160 240.385   2
  -3   1  -4 1023.62 351.056   8
  -3  -1   4 682.459 419.912   6
   3  -1  -5 12835.4 1325.73   5
   3   1   5 8616.98 855.440   7
  -3   1  -5 12598.6 1375.43   8
  -3  -1   5 9621.99 1634.09   7
  -3   1  -5 11888.3 958.421   2
  -3  -1   5 10889.8 1552.73   6
  -3   1  -6 225.266 209.989   8
   3   1   6 571.954 236.892   7
  -3  -1   6 1036.36 523.553   7
  -3  -1   6 1155.06 555.560   6
  -3   1  -6 349.089 226.906   2
  -3  -1   7 8229.21 1605.36   7
  -3  -1   7 7434.82 1403.32   6
  -3   1  -7 8803.22 1438.72   8
  -3  -2  -7 846.977 461.574   8
   3   2  -7 516.763 305.130   8
  -3   2   7 638.628 465.543   7
  -3   2   7 866.398 513.552   6
  -3  -2  -6 3386.53 788.292   8
  -3  -2  -6 3694.63 632.222   2
  -3   2   6 4305.35 1096.01   7
  -3   2   6 4711.23 995.864   6
   3  -2   5 1369.19 291.959   4
  -3  -2  -5 644.189 277.650   2
  -3   2   5 678.680 443.674   6
  -3  -2  -5 422.021 189.704   8
  -3   2   5 437.570 305.597   7
   3   2  -4 4049.47 797.051   5
  -3  -2  -4 6645.04 862.472   8
  -3  -2  -4 7341.36 717.624   2
  -3   2   4 10461.7 1357.60   6
   3  -2   4 7809.98 743.911   1
   3   2  -3 1742.88 572.892   5
   3  -2   3 1346.02 364.270   1
  -3  -2  -2 15524.8 928.006   8
   3  -2   2 17218.7 986.385   1
  -3   2   2 14521.6 1537.61   6
   3   2  -2 15860.6 1202.33   8
  -3   2   1-7.94767 24.0650   6
   3   2  -1-15.2293 44.4925   8
  -3  -2  -1 28.7498 28.4102   8
   3  -2   1-12.4624 67.4532   1
  -3  -2   0 25599.8 601.100   3
  -3   2   0 28186.3 1177.69   8
   3   2   0 24374.9 2080.54   5
   3  -2   0 28476.3 1185.80   8
   3  -2   0 24778.8 872.015   3
  -3  -2   0 26021.8 674.239   8
  -3  -2   1 267.240 257.036   6
  -3   2  -1-18.7481 67.4187   8
   3  -2  -1 64.0437 48.9641   3
   3  -2  -1 118.786 126.961   8
   3   2   1 86.0690 83.8869   1
   3  -2  -1-76.4446 147.175   5
   3   2   1 204.440 218.248   5
  -3   2  -2 14404.3 973.143   8
   3  -2  -2 14956.5 1378.85   5
   3   2   2 17344.4 1101.76   1
  -3  -2   2 15768.2 1685.53   6
   3  -2  -3 30.6147 24.1824   5
   3   2   3 162.108 99.9162   7
   3   2   3 170.871 98.1292   1
   3  -2  -4 7692.18 941.672   5
  -3   2  -4 7604.84 963.642   8
  -3   2  -4 7794.55 622.297   2
   3   2   4 7268.75 760.039   7
   3   2   4 8232.68 901.946   1
  -3  -2   4 10652.4 1557.89   6
  -3   2  -5 1568.87 530.271   8
   3  -2  -5 1007.85 393.490   5
   3   2   5 571.323 246.761   7
  -3   2  -5 1706.46 374.655   2
  -3  -2   5 4134.34 1255.17   7
  -3  -2   5 4014.16 1141.80   6
   3   2   6 3969.39 652.527   7
  -3   2  -6 3835.21 869.042   8
  -3  -2   6 6120.59 1337.30   7
  -3  -2   6 4955.40 1130.13   6
  -3   2  -7 2232.13 772.922   8
  -3  -2   7 1693.46 783.886   7
  -3  -2   7 2539.47 921.845   6
  -3  -3  -7 72603.8 4062.71   8
  -3   3   7 86893.7 5221.01   7
   3   3  -7 77801.7 4368.68   8
  -3   3   7 88396.9 4536.28   6
  -3  -3  -6-61.2960 227.280   8
   3   3  -6 361.433 271.300   8
  -3   3   6 204.412 361.908   7
  -3   3   6 134.884 75.9992   6
  -3  -3  -6 18.9007 56.1601   2
   3   3  -5 116090. 4690.70   5
  -3  -3  -5 124311. 4184.43   8
  -3   3   5 159154. 6277.29   7
  -3  -3  -5 154177. 4050.83   2
  -3   3   5 163741. 5283.01   6
  -3  -3  -4 1443.24 397.816   8
   3   3  -4 1005.07 425.111   5
  -3   3   4 1001.03 489.993   7
  -3  -3  -4 1026.50 264.799   2
  -3   3   4 1471.08 463.893   6
   3  -3   3 237372. 3597.36   1
  -3  -3  -3 230840. 4369.80   8
  -3  -3  -2 645.869 187.918   8
   3  -3   2 844.534 208.376   1
   3   3  -2 517.107 279.491   5
  -3   3   2 418.420 277.438   6
  -3  -3  -1 308636. 3055.10   8
   3   3  -1 298353. 6655.67   5
   3  -3   1 341650. 4275.98   1
  -3   3   1 334881. 5051.05   6
  -3   3   1 294495. 5655.81   8
  -3   3   0 989.143 234.172   8
   3  -3   0 1011.74 253.757   8
   3  -3   0 920.001 185.499   3
  -3  -3   0 974.752 105.855   3
   3   3   0 1278.65 424.834   5
   3  -3  -1 329857. 4040.83   3
  -3   3  -1 313488. 4287.06   8
   3   3   1 343288. 8101.87   5
   3   3   1 348581. 4912.31   1
  -3  -3   1 327894. 5425.09   6
   3   3   1 318973. 3758.37   4
  -3   3  -2 334.358 160.590   8
   3  -3  -2 978.286 325.557   5
   3   3   2 1253.11 557.928   5
   3   3   2 735.200 238.838   1
  -3  -3   2 391.829 244.403   6
   3  -3  -3 219555. 4819.78   5
   3   3   3 231767. 4102.39   7
  -3   3  -3 221549. 4629.33   8
   3   3   3 231143. 4493.35   1
  -3   3  -4 894.595 337.089   8
   3  -3  -4 890.268 309.678   5
   3   3   4 1164.86 307.208   7
   3   3   4 1192.76 373.375   1
  -3  -3   4 1761.45 709.669   6
  -3   3  -5 135857. 4643.39   8
   3   3   5 131006. 3602.72   7
   3  -3  -5 165678. 4084.66   5
  -3   3  -5 131612. 2878.53   2
  -3  -3   5 175182. 6508.90   6
  -3   3  -6-252.644 293.961   8
   3   3   6 17.6004 26.4815   7
  -3  -3   6 234.929 295.736   7
  -3  -3   6 370.881 424.665   6
  -3   3  -7 77151.5 4221.89   8
  -3  -3   7 67288.5 4572.03   7
   3   3   7 74132.6 3138.44   7
   3   4  -6 7510.75 1146.01   8
  -3  -4  -6 5682.48 1004.87   8
  -3   4   6 7544.85 1442.04   7
  -3  -4  -6 6228.13 883.810   2
  -3   4   6 7614.22 1195.84   6
   3   4  -5 455.586 263.866   8
   3   4  -5 608.261 403.447   5
  -3   4   5 2362.59 865.202   7
  -3  -4  -5 1938.67 492.512   2
  -3   4   5 1294.57 545.857   6
   3   4  -4 11448.0 1004.50   8
  -3   4   4 12543.9 1682.69   7
  -3  -4  -4 12236.3 985.322   2
  -3   4   4 14473.8 1479.52   6
   3   4  -3 257.486 104.162   8
   3   4  -3 284.242 77.7165   3
   3   4  -3 225.993 237.728   5
   3  -4   3 212.510 97.3141   1
  -3   4   3 466.189 333.042   6
   3   4  -2 16610.2 680.081   8
   3  -4   2 16466.6 889.768   1
   3   4  -2 15580.7 1484.10   5
  -3   4   1-4.50505 127.011   8
  -3  -4  -1 171.471 62.6546   8
   3   4  -1 208.390 149.101   1
   3   4  -1 14.9552 112.598   5
  -3   4   1 106.674 38.1934   6
  -3   4   0 16267.7 1029.13   8
   3   4   0 16430.9 1602.28   5
   3  -4   0 15404.9 832.995   3
  -3  -4   1 474.158 254.961   6
  -3   4  -1 117.614 66.7740   8
   3   4   1 223.056 148.670   1
   3   4   1 85.7492 150.404   5
   3  -4  -1 196.067 105.208   5
   3   4   1 184.490 73.3727   4
   3  -4  -1 156.469 113.583   3
  -3   4  -2 16740.9 1120.11   8
   3   4   2 18326.4 1853.89   5
   3   4   2 16986.1 1152.94   1
   3  -4  -2 17604.3 1430.69   5
   3   4   2 15013.7 653.248   4
  -3  -4   2 15635.1 1798.63   6
   3   4   3 170.487 27.4888   5
   3  -4  -3 372.463 212.182   5
   3   4   3 654.134 290.698   7
  -3   4  -3 401.578 206.685   8
   3   4   3 127.060 31.0376   4
   3   4   3 674.541 407.181   1
  -3  -4   3 310.752 480.974   6
  -3   4  -4 11768.4 1220.32   8
   3   4   4 11063.5 991.409   7
   3   4   4 13395.5 1236.97   1
   3  -4  -4 13125.9 1118.14   5
   3  -4  -5 925.726 322.269   5
  -3   4  -5 642.832 364.528   8
   3   4   5 1279.66 401.646   7
  -3  -4   5 790.950 558.735   6
  -3   4  -6 6944.92 1170.08   8
   3   4   6 6221.59 876.363   7
  -3  -4   6 8463.34 1588.08   7
  -3  -4   6 7350.63 1425.88   6
   3   5  -6 315.811 177.240   8
  -3  -5  -6-129.010 142.193   8
  -3   5   6 546.410 334.671   7
   3  -5   6 389.521 220.380   4
  -3   5   6 608.853 241.946   6
  -3  -5  -6 87.6282 106.843   2
   3   5  -5 8065.15 1322.24   5
  -3   5   5 8786.35 1453.17   7
  -3   5   5 9625.30 1220.04   6
   3   5  -5 11569.6 1196.76   8
   3   5  -4 1365.76 560.718   5
   3   5  -4 938.151 285.681   8
  -3   5   4 668.756 362.719   7
  -3  -5  -4 938.840 301.361   2
  -3   5   4 653.594 316.365   6
   3   5  -3 5824.54 393.247   3
   3   5  -3 6007.95 971.498   5
   3   5  -3 6553.49 592.887   8
   3  -5   3 4482.20 431.085   1
  -3   5   3 4657.84 773.027   6
   3  -5   2 397.453 126.667   1
   3   5  -2 465.486 111.004   8
   3   5  -2 199.515 113.684   5
  -3   5   2 341.919 224.303   6
  -3   5   1 3213.22 608.768   8
   3   5  -1 4556.72 773.834   5
   3   5  -1 5120.15 622.431   1
  -3   5   1 3349.59 513.201   6
  -3   5   0 364.195 162.640   8
   3   5   0 409.452 274.783   5
  -3   5  -1 4891.97 583.865   8
   3   5   1 3853.02 541.379   1
   3   5   1 3368.63 696.716   5
   3   5   1 3415.72 363.528   4
  -3  -5   1 3353.90 582.497   6
   3   5   2 489.841 213.141   7
  -3   5  -2 461.590 143.228   7
   3  -5  -2 690.846 280.777   5
   3   5   2 355.018 128.572   5
   3   5   2 528.083 194.459   1
   3   5   2 379.295 101.523   4
  -3   5  -2 471.509 170.684   8
  -3  -5   2 315.296 285.311   6
  -3   5  -3 5722.56 768.573   8
   3  -5  -3 6623.22 764.277   5
   3   5   3 4648.32 897.421   5
   3   5   3 4610.63 617.682   7
  -3   5  -3 6192.34 527.407   7
   3   5   3 4599.58 680.812   1
  -3  -5   3 5035.04 1177.10   6
  -3   5  -4 1271.23 429.511   8
   3  -5  -4 1217.96 315.299   5
   3   5   4 676.143 253.176   7
   3   5   4 600.508 371.182   5
  -3   5  -4 915.375 194.111   2
   3   5   4 934.775 318.774   1
  -3  -5   4 1492.05 629.552   6
   3   5   5 8030.50 1191.56   5
   3   5   5 7732.24 932.590   7
  -3  -5   5 9348.02 1565.03   6
  -3   5  -6 533.347 336.478   8
   3   5   6 555.291 274.796   7
  -3  -5   6 203.959 258.201   7
  -3  -5   6 341.315 243.413   6
   3   6  -6 710.759 356.890   8
   3  -6   6 392.422 195.980   4
  -3   6   6 452.192 189.798   6
  -3  -6  -6 519.615 276.385   2
   3   6  -5-131.249 221.159   5
   3   6  -5-12.0263 85.2523   8
  -3   6   5-218.875 230.949   7
  -3  -6  -5 166.704 205.213   2
  -3   6   5 54.9581 156.998   6
   3   6  -4 707.043 251.533   8
   3   6  -4 268.150 193.059   5
  -3   6   4 453.181 292.606   7
  -3  -6  -4 846.120 263.629   2
  -3   6   4 912.614 349.173   6
   3   6  -3 34.0470 35.3173   3
   3   6  -3 80.7902 142.018   5
   3  -6   3 127.895 58.9699   1
  -3   6   3 86.9877 191.970   7
   3   6  -3 117.004 103.151   8
  -3   6   3 103.875 155.110   6
   3  -6   2 427.642 144.159   1
   3   6  -2 646.236 285.496   5
   3   6  -2 879.885 153.459   8
   3   6  -2 844.685 253.518   1
  -3   6   2 121.590 115.244   6
  -3  -6  -1 139.604 131.709   8
  -3   6   1 38.8600 95.1961   8
   3  -6   1 37.6098 41.7751   3
   3   6  -1 73.4057 13.6082   5
  -3   6   1 70.2747 100.349   6
   3   6  -1-12.6082 29.4962   1
   3   6   0 620.232 218.382   1
   3   6   0 396.182 240.292   5
  -3   6   0 221.019 136.281   8
  -3   6  -1-28.6148 84.6416   8
   3   6   1-7.85310 84.4059   5
   3   6   1 82.1575 86.9418   1
   3   6   1 80.0268 48.3940   4
  -3  -6   1 34.2085 107.040   6
  -3   6  -2 716.981 267.770   8
   3   6   2 372.649 173.724   1
   3   6   2 291.657 132.933   7
  -3   6  -2 910.459 188.174   7
   3   6   2 254.267 247.654   5
   3  -6  -2 757.270 261.012   5
   3   6   2 476.470 108.074   4
  -3  -6   2 646.836 455.055   6
  -3   6  -3 7.38243 60.7053   8
   3  -6  -3 14.1635 28.4474   5
   3   6   3 189.546 137.130   7
  -3   6  -3 100.864 64.2641   7
   3   6   3-27.0771 140.276   5
  -3  -6   3-68.6907 251.531   6
   3   6   3 8.38940 76.2076   1
  -3   6  -4 796.463 334.126   8
   3  -6  -4 941.231 251.234   5
   3   6   4 966.497 382.720   5
   3   6   4 723.436 283.923   7
  -3   6  -4 939.235 179.904   2
  -3  -6   4 602.944 415.070   6
   3   6   4 1028.88 385.286   1
  -3   6  -5-230.333 243.443   8
   3   6   5 36.3738 134.334   7
   3   6   5 34.5272 144.412   5
  -3  -6   5-69.5511 121.839   6
  -3   6  -6 578.834 258.097   8
  -3  -6   6 127.463 303.906   7
  -3  -6   6 667.146 427.038   6
   3   6   6 512.080 234.251   7
   3   7  -6 370.182 201.013   8
  -3   7   6 685.378 403.428   7
   3  -7   6 347.171 188.430   4
  -3   7   6 573.956 298.848   6
  -3  -7  -6 629.468 356.169   2
   3   7  -5 10246.4 1115.70   8
  -3   7   5 11206.0 1643.20   7
  -3  -7  -5 11619.7 1251.51   2
  -3   7   5 9879.84 1202.49   6
   3   7  -4 777.497 253.461   8
  -3   7   4 928.231 456.458   7
  -3  -7  -4 939.536 302.650   2
   3   7  -4 1218.61 514.518   5
  -3   7   4 689.838 307.243   6
   3   7  -3 8306.28 676.776   8
   3   7  -3 8199.36 841.402   1
  -3   7   3 6834.99 1174.23   7
   3   7  -3 8122.38 1141.27   5
   3  -7   3 7329.26 442.908   1
  -3   7   3 7738.62 954.836   6
   3   7  -3 8524.50 571.550   3
   3  -7   2 383.591 114.391   1
   3   7  -2 340.310 88.6042   8
   3   7  -2 619.740 307.561   5
  -3   7   2 738.116 410.700   7
   3   7  -2 364.102 153.067   1
  -3   7   2 647.110 300.703   6
   3  -7   1 7948.72 753.395   3
   3   7  -1 9840.01 1113.19   5
  -3   7   1 7446.69 965.324   8
  -3  -7  -1 8469.47 935.804   8
   3   7  -1 9586.57 879.379   1
  -3   7   1 7668.42 803.385   6
   3  -7   0 281.478 119.902   3
  -3   7   0 148.211 55.4165   8
   3   7   0 246.682 115.738   5
   3   7   0 257.156 105.625   1
   3   7   1 8605.13 1025.73   5
  -3   7  -1 9074.03 875.307   8
   3   7   1 8829.04 873.254   1
   3   7   1 8502.60 581.504   4
  -3  -7   1 8402.51 1008.83   6
  -3  -7   1 8204.40 768.902   4
   3  -7  -1 7936.89 901.998   3
  -3   7  -2 456.387 197.480   8
  -3   7  -2 354.535 118.518   7
   3   7   2 272.555 148.486   7
   3   7   2 386.669 189.063   1
   3   7   2 314.602 218.598   5
   3  -7  -2 402.764 174.687   5
  -3  -7   2 574.946 230.354   4
  -3  -7   2 362.791 290.605   6
   3   7   3 7135.02 811.014   7
   3  -7  -3 8578.90 805.460   5
   3   7   3 6316.07 883.014   5
  -3   7  -3 8410.57 521.203   7
  -3   7  -3 8604.74 983.689   8
   3   7   3 7750.09 927.583   1
  -3  -7   3 10085.5 1770.68   6
  -3  -7   3 7549.59 874.152   4
   3  -7  -4 1393.99 273.234   5
   3   7   4 702.844 321.575   7
   3   7   4 505.741 278.308   5
  -3   7  -4 738.028 349.389   8
   3   7   4 741.645 313.331   1
  -3  -7   4 270.042 161.807   6
  -3  -7   4 962.029 336.552   4
  -3   7  -5 12098.2 1449.51   8
   3   7   5 8229.46 980.291   5
   3   7   5 8101.11 1005.15   7
  -3  -7   5 10342.4 1693.75   6
  -3   7  -6 297.415 283.421   8
   3   7   6 674.680 328.719   7
  -3  -7   6 1013.04 590.646   7
  -3  -7   6 115.302 169.000   6
   3   8  -6 3730.14 771.381   8
  -3   8   6 4861.20 1185.35   7
   3  -8   6 3877.22 663.953   4
  -3   8   6 4550.07 874.122   6
  -3  -8  -6 3688.44 756.342   2
   3   8  -5-244.484 361.728   5
   3   8  -5 228.306 186.479   8
  -3   8   5 4.34936 242.120   7
  -3  -8  -5 157.989 141.479   2
  -3   8   5 373.113 245.929   6
   3   8  -4 5175.52 1033.42   5
  -3  -8  -4 6444.28 803.454   2
  -3   8   4 5740.49 1102.01   7
   3   8  -4 6349.30 764.385   1
  -3   8   4 6241.26 862.687   6
   3   8  -4 5923.14 701.264   8
   3  -8   3 173.192 60.0499   1
   3   8  -3 304.920 141.518   8
   3   8  -3 440.977 270.400   5
  -3   8   3 150.498 108.500   7
   3   8  -3 191.632 151.775   1
  -3   8   3 636.268 270.309   6
   3   8  -2 7805.29 825.161   1
   3   8  -2 7186.71 502.549   8
   3   8  -2 7901.73 1065.86   5
   3  -8   2 5572.26 450.428   1
  -3   8   2 5898.41 794.756   6
  -3   8   2 5515.14 1022.77   7
  -3   8   1 283.784 217.900   8
  -3  -8  -1 160.951 129.145   8
   3   8  -1 21.6368 55.0719   1
   3  -8   1-20.6115 77.4508   3
   3   8  -1 36.3050 25.8656   5
  -3   8   1-49.0024 108.788   6
  -3   8   0 8766.39 959.344   8
   3   8   0 9178.03 890.090   1
   3   8   0 8598.37 990.529   5
  -3  -8   0 9082.92 384.832   8
  -3   8   0 8112.85 644.422   6
   3  -8   0 8008.68 848.015   3
   3  -8  -1 205.351 213.232   3
  -3   8  -1-23.7420 19.6061   8
  -3  -8   1 58.6578 29.6365   3
   3   8   1-33.2192 41.0335   5
   3   8   1-23.8331 106.444   1
  -3  -8   1 90.6234 111.249   4
  -3  -8   1-125.995 140.319   6
  -3   8  -2 6792.54 834.495   8
   3  -8  -2 8688.75 932.956   5
   3   8   2 5926.97 817.098   5
   3   8   2 6126.53 733.998   7
   3   8   2 5631.98 733.870   1
  -3   8  -2 6909.08 483.904   7
  -3  -8   2 6239.33 737.869   4
  -3  -8   2 5379.34 1268.20   6
  -3   8  -3 108.722 37.5041   8
   3   8   3 107.401 107.012   1
   3   8   3 435.905 194.149   7
   3  -8  -3 156.740 65.9114   5
   3   8   3 253.705 170.480   5
  -3   8  -3 145.006 62.3916   7
  -3  -8   3 329.120 416.862   6
  -3  -8   3 184.830 113.135   4
  -3   8  -4 6707.06 987.304   8
   3   8   4 6435.04 852.072   7
   3   8   4 5493.02 763.583   5
  -3  -8   4 7432.18 1474.48   6
   3   8   4 6762.00 966.951   1
  -3  -8   4 6450.75 866.503   4
  -3   8  -5 348.048 200.659   8
   3   8   5 537.261 287.688   7
   3   8   5 129.348 129.232   5
  -3  -8   5 605.339 476.523   6
  -3   8  -6 4271.93 956.354   8
   3   8   6 3522.40 733.950   7
  -3  -8   6 5632.73 1357.98   7
  -3  -8   6 4071.41 1164.07   6
   3   9  -6 187.805 207.503   8
  -3   9   6 57.2193 272.612   7
   3  -9   6 208.277 176.256   4
  -3   9   6 144.022 112.299   6
  -3  -9  -6 414.605 241.469   2
   3   9  -5 103400. 3525.84   8
   3   9  -5 96341.6 3177.03   1
  -3   9   5 121640. 5570.06   7
  -3  -9  -5 104814. 3780.17   2
  -3   9   5 116022. 3987.39   6
   3   9  -4 410.568 189.942   8
   3   9  -4 596.770 366.979   5
  -3   9   4 1165.84 522.120   7
  -3  -9  -4 561.277 230.736   2
  -3   9   4 558.991 252.505   6
   3   9  -4 516.612 191.591   1
   3   9  -3 168012. 3212.92   8
   3   9  -3 176493. 5481.02   5
   3   9  -3 164575. 3871.24   1
  -3   9   3 192311. 6398.86   7
  -3   9   3 188125. 4260.20   6
   3   9  -2 546.812 219.065   1
   3   9  -2 493.126 138.781   8
   3   9  -2 583.320 271.814   5
  -3   9   2 847.645 428.578   7
   3  -9   2 669.341 154.818   1
  -3   9   2 398.900 196.153   6
   3  -9   1 244347. 4582.05   3
   3   9  -1 245970. 5520.26   5
   3   9  -1 236774. 4601.36   1
  -3   9   1 254382. 6824.37   7
  -3  -9  -1 232782. 4097.32   8
  -3   9   0 799.215 200.641   6
  -3  -9   0 833.809 142.591   8
  -3   9   0 1055.61 342.851   8
   3  -9   0 829.305 276.538   3
   3   9   0 748.217 296.013   5
   3   9   0 876.755 282.837   1
  -3  -9   0 710.165 247.537   6
  -3  -9   0 778.052 217.642   4
  -3  -9   1 238811. 2382.94   3
  -3   9  -1 247187. 5054.82   8
   3   9   1 234997. 4972.68   5
   3   9   1 227428. 4602.23   1
  -3  -9   1 233152. 4227.27   4
  -3  -9   1 244335. 6223.61   6
  -3   9  -2 458.709 235.640   8
   3   9   2 349.549 194.694   5
   3  -9  -2 472.570 207.782   5
   3   9   2 874.903 304.355   1
   3   9   2 564.159 247.287   7
  -3  -9   2 385.557 189.374   4
  -3  -9   2 75.1287 194.529   6
   3  -9  -3 180465. 3412.80   5
   3   9   3 171941. 4222.37   5
   3   9   3 173525. 4263.85   7
  -3   9  -3 171341. 4638.89   8
   3   9   3 172451. 4640.51   1
  -3  -9   3 177515. 4393.98   4
  -3   9  -4 640.712 285.169   8
   3   9   4 669.747 312.540   7
   3   9   4 492.159 255.268   5
  -3  -9   4 805.246 458.103   6
  -3  -9   4 689.733 268.465   4
   3   9   4 680.996 295.395   1
  -3   9  -5 102150. 4407.89   8
   3   9   5 101095. 3784.92   7
  -3  -9   5 103313. 5474.11   6
  -3  -9   5 114505. 4106.94   4
  -3   9  -6 94.4426 92.5355   8
   3   9   6 360.900 244.245   7
  -3  -9   6-184.941 210.923   6
  -3  10   6 7960.36 1537.10   7
  -3 -10  -6 7252.65 1094.75   2
   3 -10   6 6722.54 946.956   4
  -3  10   6 7195.96 1084.37   6
   3  10  -5 305.548 276.862   5
  -3  10   5 170.790 125.435   7
  -3 -10  -5 897.341 354.948   2
  -3  10   5 733.348 297.701   6
   3  10  -5 707.492 301.005   8
   3  10  -5 312.092 165.087   1
   3  10  -4 11640.1 1567.15   5
   3  10  -4 10241.2 961.020   8
   3  10  -4 11035.2 1026.83   1
  -3  10   4 11967.6 1662.06   7
  -3 -10  -4 11763.8 1150.18   2
  -3  10   4 10873.6 1096.59   6
   3  10  -3 222.131 112.124   1
   3  10  -3 277.430 131.369   8
   3  10  -3 265.464 214.821   5
  -3  10   3 125.770 216.993   7
  -3 -10  -3 453.146 217.861   2
  -3  10   3 181.327 130.815   6
   3  10  -2 15966.7 1489.11   5
   3 -10   2 15552.2 1224.49   3
   3 -10   2 14264.4 684.129   1
   3  10  -2 15435.4 938.817   8
   3  10  -2 14986.0 1182.80   1
  -3  10   2 16213.7 1784.32   7
  -3  10   2 15629.5 1096.11   6
  -3 -10  -2 12227.4 423.378   9
  -3  10   1 343.988 295.146   8
  -3 -10  -1 527.046 200.036   8
   3 -10   1 402.037 258.185   3
   3  10  -1 174.964 174.320   5
   3  10  -1 235.446 137.841   1
  -3  10   1 500.325 268.918   7
  -3  10   1 118.688 104.361   6
   3 -10   0 10888.8 1085.19   3
  -3  10   0 11928.7 1231.27   8
  -3 -10   0 11950.4 628.166   8
   3  10   0 11189.2 1114.01   5
   3  10   0 11373.8 1037.62   1
  -3  10   0 12994.1 1539.43   7
  -3 -10   0 10354.8 846.711   4
  -3  10   0 11173.6 761.686   6
  -3 -10   0 11423.5 1139.72   6
   3 -10  -1 130.880 139.538   3
  -3  10  -1 348.792 175.118   8
   3  10   1 386.913 163.223   1
  -3 -10   1 252.759 89.4537   3
   3  10   1 288.992 172.051   5
  -3  10  -1 221.166 120.703   7
  -3 -10   1 332.590 137.829   4
  -3 -10   1 505.230 292.484   6
  -3  10  -2 14311.2 1289.00   8
   3  10   2 11884.8 1080.56   5
   3 -10  -2 15064.8 1240.81   5
   3  10   2 13979.1 1170.98   7
  -3  10  -2 14521.6 1247.96   7
   3  10   2 13746.9 1240.80   1
  -3 -10   2 11515.7 2101.82   6
  -3 -10   2 14061.0 1161.53   4
  -3  10  -3 356.415 163.528   8
   3  10   3 216.073 171.365   7
   3  10   3 408.423 194.552   5
   3 -10  -3 504.062 169.325   5
   3  10   3 369.714 204.630   1
  -3 -10   3 193.397 312.647   6
  -3 -10   3 370.208 197.989   4
  -3  10  -4 11868.3 1396.84   8
   3  10   4 9440.26 1099.01   7
   3  10   4 9106.28 902.016   5
  -3 -10   4 10376.4 1790.23   6
  -3 -10   4 10357.2 1161.58   4
   3  10   4 9402.10 1227.05   1
  -3  10  -5 259.307 222.938   8
   3  10   5 940.335 390.859   7
  -3 -10   5 208.396 339.291   6
  -3 -10   5 180.577 130.841   4
  -3  10  -6 7279.67 1283.82   8
   3  10   6 6613.34 1100.30   7
  -3 -10   6 6042.28 1382.83   6
  -3  11   6 419.442 286.756   7
   3 -11   6 284.172 217.113   4
  -3  11   6 405.361 242.987   6
  -3 -11  -6 381.420 234.433   2
   3  11  -5 13125.9 1890.34   5
   3  11  -5 14560.2 1356.32   8
   3  11  -5 13444.6 1172.27   1
  -3  11   5 11700.8 1770.32   7
  -3 -11  -5 14855.9 1490.97   2
  -3  11   5 12131.9 1258.30   6
   3  11  -4 646.762 266.285   1
   3  11  -4 396.947 200.361   8
   3  11  -4 417.094 284.956   5
  -3  11   4 217.413 231.461   7
  -3 -11  -4 565.130 268.477   2
  -3  11   4 650.196 256.672   6
   3  11  -3 12059.9 919.591   8
   3  11  -3 12190.0 1459.54   5
   3  11  -3 12566.1 1100.55   1
  -3  11   3 9631.99 1460.79   7
  -3 -11  -3 12032.6 1072.41   2
  -3  11   3 8711.14 854.167   6
   3  11  -2 179.967 138.764   8
   3  11  -2 203.939 176.288   5
   3 -11   2 283.511 140.029   3
   3  11  -2 235.318 150.118   1
  -3  11   2 59.1128 51.4002   7
   3 -11   2 243.948 84.4015   1
  -3  11   2 209.634 116.529   6
  -3  11   1 6308.83 1051.95   8
   3 -11   1 6875.47 850.510   3
   3  11  -1 9124.15 1053.08   5
   3  11  -1 8793.87 934.617   1
  -3  11   1 9419.76 1372.89   7
  -3  11   1 5759.58 608.704   6
  -3 -11  -1 8307.61 747.390   4
  -3 -11   0 140.548 48.3602   6
  -3  11   0 118.443 104.538   8
   3 -11   0 190.087 198.204   3
  -3 -11   0 128.238 68.3703   8
   3  11   0 35.0870 66.8597   5
  -3  11   0 56.5411 155.656   7
  -3 -11   0 62.0963 66.0179   4
   3  11   0 245.866 171.622   1
  -3  11   0 148.422 104.809   6
  -3 -11   1 7390.96 523.695   3
   3  11   1 6534.47 810.678   5
   3  11   1 7563.64 882.685   1
  -3 -11   1 6358.57 735.210   4
  -3 -11   1 6857.72 1199.91   6
  -3  11  -1 9489.75 1093.08   8
  -3 -11   1 7191.91 489.932   8
   3 -11  -1 6971.15 1018.72   3
   3  11   2 129.422 140.699   1
  -3  11  -2 309.510 210.664   8
   3  11   2 232.002 83.0161   7
   3  11   2 218.006 165.769   5
  -3  11  -2 115.021 111.847   7
   3 -11  -2 74.8114 71.0692   5
  -3 -11   2 265.999 166.346   4
  -3 -11   2 148.685 395.252   6
   3  11   3 8051.38 845.620   5
   3 -11  -3 12170.5 811.973   5
   3  11   3 8354.81 995.885   7
  -3  11  -3 12407.4 1323.23   8
   3  11   3 7878.20 1042.95   1
  -3 -11   3 10736.5 1905.56   6
  -3 -11   3 8256.06 981.233   4
  -3  11  -4 893.770 408.932   8
   3  11   4 274.501 158.039   5
   3  11   4 551.726 267.695   7
  -3 -11   4 479.154 459.356   6
  -3 -11   4 415.930 239.024   4
   3  11   5 8541.19 1174.77   7
  -3 -11   5 8705.52 1546.85   6
  -3 -11   5 10313.7 1272.35   4
  -3  11  -6 296.081 390.591   8
   3  11   6 752.047 394.316   7
  -3 -11   6 160.374 213.518   6
   3  12  -5-64.7747 112.028   5
  -3  12   5-30.3025 183.253   7
  -3  12   5 158.958 168.009   6
  -3 -12  -5 274.503 222.718   2
   3  12  -4 840.874 292.436   8
   3  12  -4 980.573 425.170   5
   3  12  -4 488.541 235.826   1
  -3  12   4 1062.06 505.663   7
  -3 -12  -4 871.527 350.061   2
  -3  12   4 1137.16 346.639   6
   3  12  -3-46.6899 81.9686   8
   3  12  -3 421.795 296.270   5
   3  12  -3 36.1860 109.426   1
  -3  12   3-69.9447 205.910   7
  -3 -12  -3-68.0072 132.021   2
  -3  12   3 106.974 79.2776   6
   3 -12   2 1736.68 228.304   1
   3  12  -2 2227.71 545.222   5
   3  12  -2 1738.84 393.823   8
   3 -12   2 1943.35 472.366   3
   3  12  -2 1695.58 401.208   1
  -3  12   2 2132.94 683.406   7
  -3  12   2 2263.57 366.689   6
  -3  12   1 202.714 239.058   8
   3 -12   1 117.574 146.317   3
   3  12  -1 221.816 204.338   5
  -3  12   1 322.063 226.521   7
   3  12  -1 174.186 183.142   1
  -3  12   1 138.497 119.563   6
  -3 -12  -1 9.00453 63.0960   4
   3 -12   0 4636.64 785.610   3
  -3  12   0 5228.48 910.071   8
   3  12   0 4623.32 712.224   5
   3  12   0 4713.36 700.228   1
  -3  12   0 4283.10 880.237   7
  -3 -12   0 4653.50 606.281   4
  -3  12   0 3117.15 399.977   6
  -3 -12   0 4682.61 833.272   6
   3 -12  -1-93.8577 96.0338   3
  -3  12  -1 185.293 151.294   8
  -3 -12   1 40.9912 16.2528   3
   3  12   1 80.3258 41.0384   5
   3  12   1 89.3419 115.065   1
  -3  12  -1 217.009 195.412   7
  -3 -12   1 104.369 87.9899   4
  -3 -12   1 73.3108 195.746   6
   3  12   2 1821.66 487.436   1
  -3  12  -2 1874.46 512.293   8
  -3  12  -2 1637.44 261.556   7
   3  12   2 1696.01 409.413   5
   3  12   2 1951.43 466.997   7
   3 -12  -2 1567.31 383.398   5
  -3 -12   2 2053.63 476.301   4
  -3 -12   2 1085.75 744.487   6
  -3  12  -3 169.695 197.873   8
   3  12   3 21.6134 119.395   1
   3  12   3 109.097 66.1695   5
   3  12   3-10.7766 133.747   7
  -3 -12   3-334.876 445.751   6
  -3 -12   3 175.582 190.782   4
  -3  12  -4 645.801 328.451   8
   3  12   4 1182.89 406.383   7
  -3 -12   4 1084.94 512.457   6
  -3 -12   4 1315.50 442.882   4
  -3  12  -5 176.516 221.716   8
   3  12   5 178.053 151.427   7
  -3 -12   5-1.56737 264.836   6
  -3 -12   5-131.975 203.733   4
  -3  13   5 14209.3 2000.40   7
  -3 -13  -5 13556.6 1438.44   2
   3  13  -4 378.972 199.986   8
   3  13  -4 944.995 498.362   5
   3  13  -4 640.262 252.150   1
  -3  13   4 293.582 161.627   7
  -3 -13  -4 831.203 360.170   2
  -3  13   4 373.477 189.636   6
   3  13  -3 15570.4 1172.35   8
   3  13  -3 14939.2 1245.08   1
  -3  13   3 14134.9 1855.69   7
  -3 -13  -3 14000.9 1224.31   2
  -3  13   3 17243.2 1151.11   6
   3  13  -3 16444.7 1719.94   5
   3  13  -2 324.676 241.980   8
   3  13  -2 467.417 285.935   5
   3 -13   2 441.824 260.516   3
  -3  13   2 493.010 332.157   7
   3  13  -2 433.680 200.144   1
  -3  13   2 383.343 151.912   6
  -3  13   1 15534.3 1848.55   8
   3 -13   1 16588.0 1464.31   3
  -3  13   1 18258.6 1967.99   7
   3  13  -1 15847.3 1302.24   1
  -3  13   1 18856.2 804.944   6
  -3 -13  -1 15955.4 1111.01   4
   3  13  -1 17622.7 1494.46   5
  -3 -13   0 326.868 268.470   6
  -3 -13   0 95.8221 71.3676   3
  -3  13   0 31.3209 154.509   8
   3 -13   0-36.5504 115.045   3
   3  13   0 350.743 223.501   1
   3  13   0 62.1226 135.189   5
  -3  13   0 251.111 226.128   7
  -3 -13   0 354.260 192.843   4
  -3  13   0 146.452 50.4249   6
  -3  13  -1 18152.4 1627.47   8
   3  13   1 15028.3 1238.54   5
  -3  13  -1 11865.8 1220.05   7
   3  13   1 15123.4 1345.15   1
  -3 -13   1 14941.9 1195.85   4
  -3 -13   1 14447.9 2098.32   6
  -3 -13   1 16898.1 919.931   3
   3 -13  -1 12090.4 1431.66   3
  -3  13  -2 440.088 271.880   8
   3  13   2 371.655 211.545   5
   3  13   2 623.966 306.437   1
   3  13   2 366.683 202.150   7
  -3 -13   2 276.048 176.955   4
  -3 -13   2-150.680 475.478   6
   3  13   3 14381.1 1381.98   7
  -3  13  -3 16153.5 1588.70   8
  -3 -13   3 14814.6 2117.49   6
   3  13   3 13446.5 1429.76   1
  -3 -13   3 15377.4 1407.55   4
   3  13   3 14966.2 1132.40   5
  -3  13  -4 374.404 295.490   8
   3  13   4 552.114 310.010   7
  -3 -13   4 832.696 523.443   6
  -3 -13   4 525.095 242.347   4
  -3  13  -5 14135.4 1774.18   8
   3  13   5 11403.4 1453.57   7
  -3 -13   5 12437.4 1801.51   6
  -3 -13   5 14333.4 1577.05   4
  -3  14   5-44.9143 237.966   7
  -3 -14  -5-19.2357 187.787   2
   3  14  -4 2159.58 688.633   5
  -3  14   4 2993.26 860.433   7
   3  14  -4 2703.68 529.678   1
  -3 -14  -4 2873.83 683.354   2
   3  14  -3-1.77153 79.1998   8
   3  14  -3 44.0134 70.3186   5
  -3  14   3 58.7375 120.684   7
  -3 -14  -3 209.999 170.098   2
   3  14  -3 122.388 120.555   1
   3  14  -2 2596.78 605.581   8
   3  14  -2 2651.59 621.774   5
   3 -14   2 2815.69 618.034   3
   3  14  -2 3075.79 594.104   1
  -3  14   2 2890.73 781.105   7
  -3 -14  -2 2636.48 512.300   2
   3  14  -1 117.897 78.0491   1
  -3  14   1-29.3923 169.036   8
   3  14  -1 186.504 204.949   5
   3 -14   1-133.867 188.478   3
  -3  14   1 7.50741 121.355   7
  -3 -14  -1 36.3034 91.2246   4
   3  14   0 3862.45 665.150   5
  -3  14   0 4414.98 919.259   8
   3 -14   0 3478.54 767.582   3
   3  14   0 4357.01 725.956   1
  -3  14   0 2928.75 722.899   7
  -3 -14   0 3564.89 559.094   4
  -3 -14   0 4266.70 583.779   3
  -3 -14   0 3486.10 832.694   6
   3 -14  -1 34.8988 133.803   3
  -3  14  -1 77.9788 138.665   8
  -3 -14   1 37.8341 59.6203   3
   3  14   1-62.7176 137.449   5
  -3  14  -1-8.99986 279.521   7
  -3 -14   1-43.3710 93.4353   4
  -3 -14   1 269.941 381.868   6
   3  14   1-16.0825 46.0065   1
   3 -14  -2 3111.57 756.078   3
   3  14   2 2169.78 452.057   5
   3  14   2 1930.33 461.018   7
   3  14   2 1773.00 485.589   1
  -3 -14   2 2767.02 550.694   4
  -3 -14   2 1499.95 632.388   6
  -3  14  -2 3131.54 710.053   8
  -3  14  -3 284.005 259.138   8
   3  14   3 53.0700 92.5361   5
   3  14   3-72.4727 29.5877   7
   3  14   3 37.3490 103.880   1
  -3 -14   3 432.548 403.565   6
  -3 -14   3 190.011 210.321   4
  -3  14  -4 2382.85 657.708   8
   3  14   4 2401.62 622.854   7
  -3 -14   4 2467.34 786.279   6
  -3 -14   4 2157.09 579.585   4
  -3  14  -5 251.488 330.578   8
   3  14   5 307.442 308.576   7
  -3 -14   5 130.178 328.694   6
  -3 -14   5 368.720 226.829   4
  -3  15   5 79583.3 4852.99   7
  -3 -15  -5 69891.9 3483.69   2
   3  15  -4 219.997 258.759   5
  -3  15   4 436.067 323.262   7
  -3 -15  -4 323.263 232.009   2
   3  15  -3 106580. 4432.03   5
   3  15  -3 101987. 3376.62   1
  -3 -15  -3 98966.6 3489.65   2
   3  15  -2 568.125 294.284   8
   3  15  -2 620.565 310.018   5
   3 -15   2 535.370 286.061   3
  -3  15   2 572.009 367.846   7
  -3 -15  -2 396.913 184.813   2
   3  15  -2 653.528 266.115   1
   3 -15   1 124878. 4417.95   3
   3  15  -1 125794. 4088.14   5
  -3  15   1 133030. 5463.89   7
   3  15  -1 127176. 3896.41   1
  -3 -15  -1 131063. 3461.32   4
  -3 -15  -1 112437. 4347.66   6
  -3  15   1 114683. 5395.87   8
  -3 -15   0 551.678 212.683   3
  -3  15   0 660.211 408.978   8
  -3 -15   0 600.585 162.568   9
   3 -15   0 326.886 91.0069   3
   3  15   0 461.264 225.249   5
  -3  15   0 99.9870 128.421   7
   3  15   0 515.251 239.156   1
  -3 -15   0 636.199 250.571   4
  -3 -15   0-140.300 264.195   6
  -3  15  -1 137061. 4979.79   8
   3  15   1 123782. 3630.98   5
  -3 -15   1 130882. 2901.21   3
  -3  15  -1 112776. 3453.93   7
   3  15   1 120981. 4076.30   1
  -3 -15   1 119658. 3608.36   4
  -3 -15   1 141562. 7374.83   6
   3 -15  -1 102733. 4459.19   3
   3 -15  -2 907.601 427.931   3
  -3  15  -2 792.151 378.055   8
   3  15   2 585.733 221.889   5
   3  15   2 220.966 82.4780   7
  -3 -15   2 621.984 276.513   4
  -3 -15   2 264.562 246.993   6
   3  15   2 240.634 209.055   1
   3  15   3 113752. 3108.96   5
  -3  15  -3 103920. 4315.74   8
   3  15   3 97873.2 3837.07   7
  -3 -15   3 118653. 5473.01   6
  -3 -15   3 102391. 3814.53   4
   3  15   3 100802. 4144.67   1
  -3  15  -4 209.360 193.741   8
   3  15   4 593.363 342.207   7
  -3 -15   4 44.4548 50.3899   6
  -3 -15   4 394.301 239.846   4
   3  15   5 67579.3 3794.24   7
  -3 -15   5 75098.8 4204.47   6
  -3 -15   5 75235.2 3740.02   4
  -3  15  -5 70815.9 4055.88   8
  -3 -15   5 67332.9 3404.54   9
   3  16  -4 6576.49 1251.45   5
  -3 -16  -4 5361.95 895.021   2
  -3  16   4 5992.72 1308.80   7
   3  16  -3 140.730 54.4475   1
  -3  16   3 254.882 174.054   7
   3  16  -3 555.749 258.883   5
  -3 -16  -3 607.793 295.288   2
   3  16  -2 10611.1 1308.24   5
   3 -16   2 11489.6 1352.80   3
  -3  16   2 12707.5 1790.36   7
  -3 -16  -2 9783.52 1042.91   2
   3  16  -2 9150.25 1038.34   1
  -3 -16  -1 77.4620 100.631   6
  -3  16   1 297.285 332.348   8
   3  16  -1 292.917 222.215   5
   3 -16   1 274.214 275.408   3
   3  16  -1 197.695 96.6406   1
  -3  16   1-79.4049 168.888   7
  -3 -16  -1 121.423 58.8545   2
  -3 -16  -1-22.8683 109.675   4
   3 -16   0 10076.7 1396.99   3
  -3  16   0 7328.61 1140.00   7
   3  16   0 10134.9 1164.97   1
  -3  16   0 11145.3 1632.36   8
   3  16   0 10439.7 1122.01   5
  -3 -16   0 10051.0 1033.35   4
  -3 -16   0 13514.1 1888.21   6
  -3 -16   0 10900.2 1003.07   3
  -3 -16   1 212.454 113.112   9
  -3  16  -1 122.639 189.640   8
   3 -16  -1 5.92279 60.8693   3
  -3 -16   1 156.573 117.431   3
   3  16   1 272.053 175.761   5
   3  16   1 24.3822 66.5808   1
  -3 -16   1 163.898 135.064   4
  -3 -16   1 147.828 93.9790   6
  -3  16  -2 9704.95 1353.11   8
   3  16   2 12508.8 1115.74   5
   3  16   2 11162.0 1349.69   1
  -3 -16   2 11424.9 1743.58   6
  -3 -16   2 10382.5 1156.61   4
   3  16   2 10898.4 1235.93   7
  -3 -16   2 11925.6 1067.76   9
   3 -16  -2 12073.7 1560.31   3
  -3 -16   3 90.4116 111.446   9
  -3  16  -3 539.759 353.396   8
   3  16   3 276.688 216.020   7
  -3 -16   3 285.962 326.582   6
  -3 -16   3 186.020 228.881   4
  -3  16  -4 5205.99 1027.76   8
   3  16   4 5943.98 1075.98   7
  -3 -16   4 6619.96 1152.54   6
  -3 -16   4 6939.36 1067.10   4
  -3 -16   4 5906.99 909.724   9
  -3  17   4 383.207 337.030   7
  -3 -17  -4-134.612 192.152   2
   3  17  -3 12383.9 1567.90   5
  -3  17   3 9131.46 1581.20   7
  -3 -17  -3 13770.4 1438.66   2
   3  17  -3 12448.8 1208.06   1
   3  17  -2 189.110 232.803   5
   3 -17   2 140.780 176.800   3
   3  17  -2 168.193 145.622   1
  -3  17   2 42.5857 67.6828   7
  -3 -17  -2 291.808 233.165   2
   3 -17   1 7212.21 1160.55   3
   3  17  -1 9371.33 1148.54   5
  -3  17   1 5884.52 1318.22   8
  -3  17   1 7526.94 1309.90   7
  -3 -17  -1 7950.15 914.237   2
   3  17  -1 9141.69 1107.33   1
  -3 -17  -1 9576.47 1011.10   4
  -3 -17  -1 9722.20 1393.38   6
  -3 -17   0 147.894 124.010   3
  -3  17   0 217.088 261.410   8
   3  17   0-35.2174 163.008   1
   3 -17   0-5.84473 133.472   3
   3  17   0 51.5471 99.5821   5
  -3  17   0 240.112 188.029   7
  -3 -17   0 61.3670 52.2548   4
  -3 -17   0 38.6078 144.659   6
  -3 -17   1 7980.41 789.755   3
   3  17   1 7652.89 936.678   5
  -3  17  -1 10365.0 1535.56   8
   3  17   1 7834.04 1096.81   1
  -3 -17   1 7783.34 976.158   4
  -3 -17   1 6333.75 1357.85   6
  -3 -17   1 9279.35 825.952   9
   3 -17  -1 8118.42 1333.28   3
  -3 -17   2 289.103 168.246   9
   3 -17  -2-66.4099 158.775   3
   3  17   2 163.375 112.018   5
   3  17   2-54.4750 99.0162   7
   3  17   2 306.929 273.977   1
  -3 -17   2-71.2121 139.050   4
  -3 -17   2-60.1634 201.111   6
  -3  17  -3 11783.8 1592.58   8
   3  17   3 9114.85 1238.46   7
  -3 -17   3 11381.6 1483.39   6
  -3 -17   3 8876.79 1184.29   4
  -3 -17   3 9372.95 1077.48   9
  -3 -17   4 317.027 162.646   9
  -3  17  -4 98.0550 169.837   8
   3  17   4 130.142 251.582   7
  -3 -17   4 424.596 228.095   6
  -3 -17   4 447.890 317.603   4
   3  18  -3-11.7644 151.884   5
  -3  18   3 127.927 269.260   7
  -3 -18  -3 9.48153 47.1744   2
   3  18  -2 1497.62 510.784   5
   3 -18   2 1419.31 547.308   3
  -3  18   2 2215.59 792.400   7
  -3 -18  -2 2756.51 592.562   2
   3  18  -2 1856.32 471.605   1
   3  18  -1-57.6047 115.170   1
  -3  18   1-158.442 323.650   8
   3  18  -1 81.7768 103.145   5
   3 -18   1 165.315 287.381   3
  -3  18   1 642.792 475.285   7
  -3 -18  -1-93.8089 122.520   2
  -3 -18  -1-99.0156 192.394   4
   3 -18   0 2436.89 720.182   3
   3  18   0 2843.75 602.941   5
  -3 -18   0 3033.66 560.478   2
  -3  18   0 3011.04 941.963   8
   3  18   0 3627.44 741.979   1
  -3  18   0 2419.55 628.687   7
  -3 -18   0 3343.60 651.909   4
  -3 -18   0 2978.44 566.557   3
  -3  18  -1 135.747 265.618   8
   3 -18  -1-199.207 317.664   3
   3  18   1-134.724 213.663   1
   3  18   1 8.26038 75.5549   5
  -3 -18   1-145.452 113.628   3
  -3 -18   1-33.1956 39.6693   4
  -3 -18   1 222.118 296.017   6
  -3 -18   2 2238.69 467.392   9
   3 -18  -2 2324.52 737.198   3
   3  18   2 1581.01 559.917   1
  -3  18  -2 2438.78 708.487   8
   3  18   2 1734.52 438.622   5
   3  18   2 1767.52 523.363   7
  -3 -18   2 2022.94 525.321   4
  -3 -18   2 1352.06 515.093   6
  -3 -18   3-98.4627 148.961   9
   3 -18  -3-199.827 317.170   3
  -3  18  -3-47.1221 207.994   8
   3  18   3 26.4138 96.9300   7
  -3 -18   3 147.730 225.329   6
  -3 -18   3 143.801 124.989   4
  -3  19   3 21976.0 2619.62   7
  -3 -19  -3 21224.4 1831.57   2
   3  19  -2 11.6485 97.3782   1
   3  19  -2 369.214 281.154   5
   3 -19   2 273.796 242.370   3
  -3  19   2 214.046 213.745   7
  -3 -19  -2 613.307 343.470   2
  -3  19   1 20769.1 2689.97   8
   3  19  -1 22464.3 1865.34   5
   3 -19   1 20999.6 2159.01   3
  -3  19   1 21384.6 2265.49   7
  -3 -19  -1 23554.7 1723.63   2
   3  19  -1 23602.7 1902.61   1
  -3 -19  -1 25450.3 2086.64   3
  -3  19   0 370.041 460.591   8
  -3 -19   0 141.096 134.723   3
   3  19   0 69.8960 25.2808   5
   3 -19   0 223.798 151.066   3
  -3 -19   0-37.1882 99.7956   2
   3  19   0-119.429 54.8905   1
  -3 -19   0 163.022 154.586   4
   3 -19  -1 22880.4 2368.53   3
  -3  19  -1 24935.7 2558.67   8
  -3 -19   1 25441.3 1532.58   3
   3  19   1 24692.8 1761.63   5
  -3 -19   1 25515.0 1621.63   2
  -3 -19   1 23476.3 1843.54   4
   3  19   1 22187.9 1977.73   1
   3 -19  -2 23.5660 246.613   3
   3  19   2 444.561 312.547   7
  -3  19  -2 169.052 216.558   8
  -3 -19   2 312.334 287.254   4
  -3  19  -3 23038.9 2351.61   8
   3  19   3 19950.2 1969.38   7
  -3 -19   3 20829.9 1923.45   4
   3 -19  -3 22970.4 2226.79   3
  -3 -19   3 22663.2 1717.70   9
   3  20  -2 792.008 381.664   5
   3 -20   2 799.425 488.607   3
  -3  20   2 1337.77 647.113   7
  -3 -20  -2 1156.00 433.006   2
  -3  20   1-294.910 423.135   8
  -3 -20  -1-561.215 307.979   3
   3  20  -1-1.85274 163.172   5
   3 -20   1 281.326 310.617   3
  -3  20   1 121.143 153.895   7
  -3 -20  -1 337.627 235.850   2
   3  20  -1-74.8598 182.191   1
  -3  20   0 2188.58 839.290   8
  -3 -20   0 1754.56 457.944   3
   3  20   0 1847.39 499.405   5
   3 -20   0 948.467 406.507   3
   3  20   0 1478.48 478.422   1
  -3 -20   0 2027.91 480.966   2
  -3 -20   0 1941.31 523.886   4
  -3  20  -1 47.2673 193.043   8
   3 -20  -1 314.487 353.246   3
   3  20   1 21.5965 105.669   5
   3  20   1 19.9024 77.7993   1
  -3 -20   1 252.765 229.456   2
  -3 -20   1 239.600 254.309   4
  -3  20  -2 834.643 477.462   8
   3 -20  -2 1117.83 471.054   3
   3  20   2 1031.50 434.279   7
  -3 -20   2 846.454 360.262   4
  -3  21   1 64490.2 5062.31   8
   3  21  -1 64556.2 3313.75   5
   3 -21   1 55881.2 3729.91   3
  -3 -21  -1 69399.4 3323.69   2
   3  21  -1 61408.8 3235.65   1
  -3 -21  -1 63166.5 3432.09   3
  -3  21   0 457.184 413.577   8
   3  21   0 198.533 35.5296   5
   3 -21   0 433.704 439.784   3
  -3 -21   0 755.686 290.723   2
  -3 -21   0 406.076 252.948   4
   3  21   0 319.546 238.992   1
   3 -21  -1 67132.5 4178.25   3
  -3  21  -1 64584.2 4529.35   8
   3  21   1 66961.9 3014.08   5
  -3 -21   1 67219.4 2809.51   2
  -3 -21   1 57936.5 3124.32   4
  -4   0   0 282802. 3722.89   8
   4   0   0 271680. 3254.72   8
   4   0   0 288477. 8363.94   5
  -4   0   1 2184.94 489.890   6
  -4   0  -1 2209.27 330.428   8
   4   0  -1 2531.96 333.385   8
   4   0   1 2470.36 479.705   1
   4   0  -1 3240.59 847.537   5
   4   0   1 1715.69 809.198   5
   4   0  -2 204375. 2020.36   3
   4   0  -2 194647. 5923.02   5
   4   0   2 209922. 4269.40   1
  -4   0  -2 185863. 3526.33   8
  -4   0   2 195453. 5679.07   6
   4   0   3 668.741 245.544   1
  -4   0  -3 485.780 236.068   8
   4   0  -3 165.243 150.781   5
  -4   0   3 728.300 480.838   6
   4   0  -4 155216. 5011.56   5
  -4   0  -4 151717. 4407.09   8
   4   0   4 158909. 4040.60   1
  -4   0  -5 505.220 272.037   8
   4   0  -5 1181.77 444.434   5
  -4   0  -5 969.581 303.171   2
  -4   0   5 906.893 525.666   6
  -4   0  -6 82415.8 4025.93   8
  -4   0   6 88803.5 5180.21   7
  -4   0   6 92837.4 4512.97   6
   4   1  -6 249.788 270.071   5
  -4  -1  -6 2203.28 668.426   8
  -4   1   6 2500.15 937.160   7
  -4  -1  -6 1647.73 447.493   2
  -4   1   6 2151.85 781.541   6
   4   1  -5 15845.9 1641.35   5
  -4  -1  -5 12823.5 1433.78   8
  -4   1   5 12032.9 1843.50   7
  -4  -1  -5 14604.5 1170.57   2
  -4   1   5 15997.7 1803.76   6
   4  -1   4 737.723 277.041   1
   4   1  -4 420.573 319.850   5
  -4  -1  -3 18155.7 1289.59   8
   4   1  -3 15918.6 1655.19   5
   4  -1   3 17472.2 1227.54   1
  -4   1   3 14750.0 1762.80   6
   4   1  -2 53.3163 51.1346   8
   4  -1   2 142.611 133.793   1
   4   1  -2 28.3430 140.739   5
  -4  -1  -1 23426.5 1028.18   8
   4   1  -1 21623.8 787.646   8
   4  -1   1 21905.3 1357.96   1
   4   1  -1 19607.2 2083.05   5
   4  -1   1 23955.5 2695.34   5
  -4   1   1 21644.3 1497.77   6
  -4  -1   0 76.9239 65.3186   8
  -4   1   0 60.8863 53.8328   8
   4  -1   0 28.4139 19.7091   8
   4   1   0 8.31497 116.742   5
   4  -1   0-35.1733 132.354   5
   4   1   0 62.8447 136.880   1
  -4   1  -1 23234.2 1147.63   8
   4  -1  -1 23616.3 1183.29   8
   4  -1  -1 21410.7 736.936   3
   4  -1  -1 25562.1 2282.57   5
   4   1   1 21922.1 1406.71   1
  -4  -1   1 22800.5 1561.87   6
   4  -1  -2 342.710 136.853   3
  -4   1  -2 92.3006 98.3997   8
   4  -1  -2 1007.15 531.937   5
   4   1   2 1034.30 733.238   5
  -4  -1   2 161.877 228.946   6
  -4   1  -3 17528.8 1288.74   8
   4  -1  -3 17858.2 1694.03   5
   4   1   3 17747.4 1308.17   1
  -4  -1   3 14003.6 1760.06   6
   4  -1  -4 3092.93 752.398   5
  -4   1  -4 292.847 226.934   8
   4   1   4 4076.43 737.086   1
  -4  -1   4 917.336 509.070   6
   4  -1  -5 15860.5 1513.86   5
  -4   1  -5 13333.5 1046.31   2
  -4   1  -5 13637.3 1483.50   8
  -4  -1   5 18177.2 2029.17   6
  -4   1  -6 671.319 306.591   8
  -4  -1   6 651.541 386.142   7
  -4  -1   6 826.115 472.709   6
  -4  -2  -6 10195.4 1412.75   8
   4   2  -6 12890.8 1539.83   5
  -4  -2  -6 11727.0 1180.12   2
  -4   2   6 7436.22 1441.46   7
  -4   2   6 8206.13 1301.61   6
   4   2  -5 1299.29 497.943   5
  -4  -2  -5 862.456 386.064   8
  -4   2   5 222.876 278.827   7
  -4  -2  -5 1160.09 344.674   2
  -4   2   5 1113.91 488.329   6
  -4  -2  -4 6145.70 879.508   8
   4  -2   4 4248.13 608.375   1
  -4   2   4 5585.02 1025.11   6
   4   2  -4 6681.41 1105.87   5
   4  -2   3 295.365 145.530   1
  -4  -2  -3 568.604 249.765   8
   4   2  -3 181.141 102.740   5
  -4   2   3 519.473 300.375   6
   4   2  -2 3246.47 435.680   8
  -4  -2  -2 3114.35 439.210   8
   4  -2   2 1151.45 305.757   1
   4   2  -2 2804.06 759.969   5
  -4   2   2 1082.31 419.942   6
  -4   2   1 928.974 309.375   6
   4   2  -1 826.848 96.2517   8
  -4  -2  -1 807.170 180.386   8
   4   2  -1 781.080 415.105   5
   4  -2   1 804.488 239.331   1
  -4  -2   0 504.335 101.036   3
  -4   2   0 708.681 208.730   8
   4   2   0 620.378 347.880   5
   4  -2   0 659.150 427.396   5
  -4  -2   0 800.275 177.841   8
   4   2   0 661.135 270.778   1
  -4  -2   1 916.278 316.033   6
   4   2   1 733.684 275.736   1
  -4   2  -1 696.108 196.635   8
   4  -2  -1 867.903 179.678   3
   4  -2  -1 1048.30 487.064   5
   4   2   1 515.326 413.497   5
  -4   2  -2 2780.86 452.237   8
   4  -2  -2 4278.44 861.086   5
   4   2   2 1085.84 639.942   5
   4   2   2 1722.27 406.415   1
  -4  -2   2 1247.44 496.375   6
   4  -2  -2 3648.34 446.197   3
  -4   2  -3 501.801 242.406   8
   4   2   3 501.815 212.724   1
   4  -2  -3 452.931 266.284   5
   4   2   3 758.628 557.421   5
  -4  -2   3 558.056 364.695   6
  -4   2  -4 5811.13 880.047   8
   4  -2  -4 6353.09 946.106   5
   4   2   4 4612.09 750.974   1
  -4  -2   4 4731.71 1026.90   6
  -4   2  -5 1004.14 456.786   8
   4  -2  -5 1334.55 441.147   5
  -4   2  -5 887.243 278.161   2
  -4  -2   5 777.798 493.591   6
  -4   2  -6 10396.9 1462.84   8
  -4  -2   6 7784.55 1550.12   7
  -4  -2   6 7920.83 1367.11   6
   4   3  -6-183.838 243.782   5
  -4  -3  -6-121.009 96.7280   8
   4   3  -6 448.140 288.790   8
  -4   3   6 320.665 356.145   7
  -4  -3  -6 194.504 171.012   2
  -4   3   6 352.988 302.977   6
   4   3  -5 135.606 41.4058   5
  -4  -3  -5 39.5257 42.2195   8
  -4   3   5 117.877 249.788   7
  -4  -3  -5 8.09228 53.6434   2
  -4   3   5-170.370 285.318   6
  -4  -3  -4 12.3967 34.2658   8
   4  -3   4 8.50085 92.8068   1
   4   3  -4 329.057 330.255   5
  -4   3   4 183.611 214.134   6
  -4  -3  -3 453.074 230.858   8
   4   3  -3 163.287 182.475   5
  -4   3   3 566.296 320.698   6
   4  -3   3 409.699 159.655   1
   4   3  -2-49.4242 50.0918   8
   4  -3   2 83.8549 98.1455   1
  -4  -3  -2 27.3642 73.1375   8
   4   3  -2-13.5071 120.980   5
  -4   3   2 21.9810 171.443   6
  -4   3   1 1140.27 331.706   6
  -4  -3  -1 1093.43 192.085   8
  -4   3   1 994.929 343.276   8
  -4  -3  -1 825.870 163.942   3
   4   3  -1 811.510 464.622   5
   4   3  -1 1127.17 324.227   1
   4  -3   1 927.357 267.470   1
  -4   3   0 85.4593 89.1308   8
   4   3   0-97.0009 593.150   5
   4  -3   0-76.2467 51.6241   5
   4   3   0-106.781 137.867   1
  -4  -3   0 33.6103 27.3996   3
  -4  -3   1 1180.10 411.963   6
   4   3   1 1200.56 356.125   1
   4  -3  -1 961.696 217.159   3
  -4   3  -1 1142.56 272.644   8
   4   3   1 395.278 242.975   5
   4  -3  -1 1176.26 493.150   5
   4  -3  -2 28.9779 78.5731   3
  -4   3  -2 82.2534 98.4425   8
   4  -3  -2-10.5790 32.6875   5
   4   3   2-270.205 233.983   5
   4   3   2-57.4495 77.0517   1
  -4  -3   2-128.348 170.617   6
  -4   3  -3 545.635 241.540   8
   4   3   3 539.392 245.519   1
   4  -3  -3 44.3121 69.6892   5
   4   3   3 484.097 373.944   5
  -4  -3   3 302.155 268.356   6
  -4   3  -4 62.4246 110.690   8
   4   3   4 47.9044 117.984   1
   4  -3  -4 80.2437 128.413   5
   4   3   4 31.1162 355.539   5
  -4  -3   4-160.706 260.353   6
  -4   3  -5 115.964 104.106   8
   4  -3  -5 111.384 140.267   5
   4   3   5 262.426 305.030   5
  -4   3  -5 165.570 111.679   2
  -4  -3   5-316.471 392.520   6
  -4   3  -6 239.079 200.398   8
   4   3   6-34.5729 54.3955   5
  -4  -3   6 7.38213 341.106   7
  -4  -3   6-43.0641 195.158   6
   4   4  -6 5916.07 1125.84   5
  -4  -4  -6 6057.28 1068.76   8
  -4  -4  -6 6043.01 912.833   2
  -4   4   6 5671.02 1260.98   7
  -4   4   6 5768.11 1056.21   6
   4   4  -5 1255.05 520.035   5
  -4  -4  -5 868.358 394.474   8
   4   4  -5 1310.24 397.946   8
  -4   4   5 1164.06 561.707   7
  -4  -4  -5 756.873 299.931   2
  -4   4   5 1066.58 424.738   6
   4   4  -4 8000.10 1253.44   5
  -4  -4  -4 10424.6 1110.02   8
   4   4  -4 10417.8 927.675   8
   4  -4   4 7085.22 718.240   1
  -4   4   4 7871.54 1143.28   6
  -4  -4  -3 555.453 235.129   8
   4   4  -3 587.513 165.896   8
   4   4  -3 1223.67 472.296   5
   4  -4   3 766.509 238.810   1
  -4   4   3 674.252 350.264   6
  -4  -4  -2 2097.06 344.543   8
   4  -4   2 1056.69 273.305   1
   4   4  -2 1512.67 556.701   5
  -4   4   2 1192.46 396.902   6
  -4  -4  -1 961.712 164.397   8
   4   4  -1 619.454 360.894   5
  -4   4   1 798.109 335.740   8
   4  -4   1 894.123 261.131   1
   4   4  -1 966.788 312.717   1
  -4   4   1 818.056 292.444   6
   4   4   0 6976.89 1283.17   5
   4   4   0 7844.49 875.513   1
  -4   4   0 7262.84 772.117   8
  -4  -4   0 7069.15 286.168   3
  -4  -4   1 1029.92 372.975   6
  -4   4  -1 866.168 251.448   8
   4   4   1 830.008 289.271   1
   4   4   1 877.343 482.700   5
   4  -4  -1 1098.15 430.037   5
  -4   4  -2 1938.50 412.922   8
   4  -4  -2 2161.88 571.993   5
   4   4   2 895.565 528.396   5
   4   4   2 1889.65 456.869   1
  -4  -4   2 882.179 388.643   6
  -4   4  -3 347.738 184.956   8
   4  -4  -3 719.981 307.420   5
   4   4   3 762.331 263.642   1
   4   4   3 1044.56 553.284   5
  -4  -4   3 1004.99 489.650   6
  -4   4  -4 9837.44 1165.78   8
   4  -4  -4 10783.3 1126.11   5
   4   4   4 8150.35 1566.25   5
   4   4   4 7558.53 997.615   1
  -4  -4   4 7878.19 1400.45   6
  -4   4  -5 819.373 410.672   8
   4   4   5 458.068 325.812   5
  -4  -4   5 1184.04 520.649   6
  -4   4  -6 6368.86 1154.60   8
   4   4   6 3875.41 988.715   5
  -4  -4   6 5226.78 1300.91   7
  -4  -4   6 6237.23 1283.60   6
   4   5  -6 767.773 442.714   5
  -4  -5  -6 119.309 129.640   8
  -4   5   6 737.680 420.420   7
  -4  -5  -6 707.225 332.055   2
  -4   5   6 106.605 54.6809   6
   4   5  -5 6879.56 1249.20   5
   4   5  -5 8304.97 977.116   8
  -4  -5  -5 8776.93 1144.41   8
  -4   5   5 9691.16 1589.51   7
  -4  -5  -5 8974.95 1028.46   2
  -4   5   5 9622.19 1260.50   6
   4   5  -4 104.630 106.931   8
  -4  -5  -4-7.41540 153.213   8
   4   5  -4 67.0800 171.634   5
   4  -5   4 107.146 57.5388   1
  -4   5   4-72.4956 313.894   7
  -4   5   4 400.656 245.642   6
   4   5  -3 14558.6 791.068   8
  -4  -5  -3 14055.2 1114.08   8
   4  -5   3 13829.5 934.458   1
  -4   5   3 12733.1 1429.90   6
   4  -5   2 35.6656 103.458   1
  -4  -5  -2-61.1632 123.087   8
   4   5  -2-42.7121 286.024   5
   4   5  -2-41.9752 172.417   1
  -4   5   2-90.6401 186.012   6
  -4   5   1 12474.8 1298.83   8
  -4  -5  -1 14879.4 617.261   8
   4   5  -1 15017.9 1218.78   1
  -4   5   1 15249.0 1268.28   6
   4   5  -1 13929.6 1664.88   5
   4   5   0 3.46907 73.9029   1
  -4   5   0 247.635 159.441   8
   4   5   0 52.1706 222.259   5
  -4   5  -1 14414.5 1086.39   8
   4   5   1 16154.3 1861.45   5
   4  -5  -1 16218.0 1664.03   5
   4   5   1 15470.7 1280.36   1
  -4  -5   1 14857.3 1378.92   6
  -4   5  -2 51.7307 63.3273   8
   4  -5  -2 160.325 179.178   5
   4   5   2-32.4687 80.0150   5
   4   5   2 49.6765 56.5463   1
  -4  -5   2 155.437 280.767   6
  -4   5  -3 13204.3 1210.44   8
   4  -5  -3 14467.8 1316.45   5
   4   5   3 14177.5 1826.33   5
   4   5   3 13215.6 1249.74   1
  -4  -5   3 10737.9 1720.39   6
  -4   5  -4 49.2509 233.185   8
   4  -5  -4 203.111 178.993   5
   4   5   4 117.495 153.677   1
   4   5   4 421.212 363.380   5
  -4  -5   4 637.096 623.960   6
  -4   5  -5 8934.68 1262.79   8
   4   5   5 7554.99 1316.78   5
   4   5   5 8110.45 1003.94   7
  -4  -5   5 11326.3 1765.07   6
  -4   5  -6 1076.64 586.251   8
   4   5   6 379.036 213.068   7
  -4  -5   6 354.441 554.736   7
  -4  -5   6 774.318 416.119   6
   4   6  -6 74437.6 4306.28   5
  -4  -6  -6 69629.2 3664.87   8
  -4   6   6 84037.3 4855.91   7
  -4  -6  -6 79632.9 3510.55   2
  -4   6   6 87347.0 3986.17   6
   4   6  -5 473.286 367.985   5
  -4  -6  -5 289.455 161.046   8
  -4   6   5 630.981 344.719   7
  -4  -6  -5 603.092 277.804   2
  -4   6   5 545.203 239.269   6
   4   6  -4 122301. 3056.65   8
  -4  -6  -4 119324. 3744.61   8
  -4   6   4 110840. 5212.17   7
   4   6  -3 664.303 153.853   8
  -4  -6  -3 581.514 211.488   8
   4   6  -3 524.330 370.540   5
   4  -6   3 519.208 184.308   1
  -4   6   3 360.682 231.629   6
  -4  -6  -2 195296. 3327.31   8
   4   6  -2 193174. 4468.38   1
   4  -6   2 194391. 3598.20   1
  -4  -6  -1 2057.93 215.027   8
  -4  -6  -1 1484.02 338.025   8
  -4   6   1 933.877 316.931   8
   4   6  -1 1916.40 601.404   5
  -4   6   1 1844.18 438.636   6
   4   6  -1 1979.59 437.470   1
  -4   6   0 211841. 4633.62   8
   4  -6   0 203348. 3822.88   3
   4   6   0 219286. 4776.69   1
  -4  -6   1 1960.11 491.621   6
   4  -6  -1 2041.36 429.160   3
  -4   6  -1 2057.73 414.899   8
   4   6   1 1768.19 640.602   5
   4   6   1 2035.44 453.325   1
   4  -6  -1 2010.60 599.126   5
  -4   6  -2 185983. 4219.68   8
   4   6   2 223281. 6735.04   5
   4  -6  -2 212489. 5449.73   5
   4   6   2 203143. 4790.68   1
  -4  -6   2 194078. 6487.14   6
  -4   6  -3 332.251 211.388   8
   4  -6  -3 338.707 196.869   5
   4   6   3 951.189 402.752   5
   4   6   3 751.086 316.658   1
  -4  -6   3 520.295 429.750   6
  -4   6  -4 116791. 4124.25   8
   4  -6  -4 135611. 3723.84   5
   4   6   4 121786. 4965.52   5
   4   6   4 120508. 4187.16   1
  -4  -6   4 142930. 6352.16   6
  -4   6  -5 421.091 257.885   8
   4   6   5 511.928 230.954   7
   4   6   5 645.043 365.923   5
  -4  -6   5 1204.78 650.868   6
  -4   6  -6 76113.1 4101.39   8
   4   6   6 71339.7 3245.90   7
  -4  -6   6 78236.8 5115.37   7
   4   7  -6 451.735 371.807   5
  -4  -7  -6 202.610 97.0014   8
  -4   7   6 605.462 522.342   7
  -4  -7  -6 646.142 354.072   2
  -4   7   6 321.709 252.466   6
   4   7  -5 5761.39 1196.48   5
  -4  -7  -5 8586.57 1161.12   8
  -4   7   5 10482.2 1633.87   7
  -4  -7  -5 8159.25 1030.40   2
  -4   7   5 9892.36 1216.45   6
   4   7  -4 219.212 200.008   5
  -4  -7  -4 234.502 96.6740   8
  -4   7   4 308.616 290.168   7
  -4   7   4 291.458 172.984   6
   4   7  -3 18515.5 834.427   8
   4   7  -3 15704.2 1818.87   5
   4   7  -3 16916.5 1386.42   1
   4  -7   3 19036.2 1005.21   1
  -4   7   3 15487.3 1856.35   7
  -4   7   3 18793.2 1604.76   6
   4  -7   2 168.145 117.787   1
  -4  -7  -2 291.469 127.726   8
   4   7  -2 330.372 263.833   5
   4   7  -2 181.742 96.5981   1
  -4   7   2 172.484 128.283   6
  -4   7   1 25308.0 1973.97   8
  -4  -7  -1 28186.4 786.836   8
   4  -7   1 28595.3 1521.69   3
   4   7  -1 29745.0 2381.39   5
   4   7  -1 30137.8 1776.56   1
  -4  -7  -1 28116.6 1040.98   8
  -4   7   1 29879.0 1819.07   6
  -4   7   0-26.4205 85.7898   6
  -4   7   0 168.222 198.987   8
   4  -7   0 51.6686 122.246   3
   4   7   0 3.16350 74.4937   1
   4   7   0 190.908 250.557   5
   4  -7  -1 27718.8 1689.05   3
  -4   7  -1 28993.6 1712.90   8
   4   7   1 35413.3 2595.47   5
   4  -7  -1 31268.6 2247.78   5
   4   7   1 30786.5 1866.32   1
  -4  -7   1 30976.7 2088.70   6
   4  -7  -2 147.985 34.1219   3
   4   7   2 252.901 136.893   1
  -4   7  -2 194.006 160.055   8
   4   7   2-121.677 225.079   5
   4  -7  -2 214.644 171.986   5
  -4  -7   2 556.339 475.809   6
  -4   7  -3 18422.6 1493.45   8
   4  -7  -3 19946.1 1526.62   5
   4   7   3 18943.2 1861.20   5
   4   7   3 18488.4 1557.51   1
  -4  -7   3 16947.6 2282.03   6
  -4   7  -4 411.567 208.036   8
   4  -7  -4 610.014 250.335   5
   4   7   4 318.798 214.124   7
   4   7   4 298.037 200.454   5
   4   7   4 227.197 166.003   1
  -4  -7   4 279.187 331.515   6
  -4   7  -5 8134.50 1257.70   8
   4   7   5 8387.84 1167.49   5
   4   7   5 8676.27 1081.56   7
  -4   7  -6 112.697 220.781   8
   4   7   6 362.714 267.397   7
  -4  -7   6 489.919 256.937   7
  -4  -7   6 555.797 421.431   6
   4   8  -6 7547.59 1433.80   5
   4   8  -6 9892.49 1260.36   1
  -4  -8  -6 8810.49 1299.39   8
  -4   8   6 7717.57 1462.11   7
  -4  -8  -6 10014.8 1271.19   2
  -4   8   6 6301.16 1033.76   6
   4   8  -5 731.183 386.765   5
  -4   8   5 515.203 365.696   7
  -4  -8  -5 797.039 308.435   2
   4   8  -5 716.279 336.793   1
  -4   8   5 156.456 141.024   6
   4   8  -4 7751.83 1342.79   5
   4   8  -4 9889.32 1107.14   1
  -4   8   4 6411.88 1211.31   7
  -4  -8  -4 10039.4 1044.03   2
  -4   8   4 6247.83 912.339   6
   4   8  -3 647.563 425.538   5
  -4   8   3 354.831 294.085   7
   4  -8   3 373.600 134.344   1
  -4   8   3 260.102 231.213   6
   4   8  -3 692.319 266.448   1
   4   8  -2 6846.22 1180.17   5
   4  -8   2 5512.84 584.642   1
   4   8  -2 6449.12 835.142   1
  -4   8   2 3541.49 724.682   6
  -4   8   1 394.344 212.205   8
  -4  -8  -1 754.849 151.048   8
   4   8  -1 339.275 188.411   1
  -4  -8  -1 557.410 117.318   8
   4   8  -1 465.191 377.116   5
   4  -8   1 255.162 153.959   3
  -4   8   1 148.044 138.176   6
  -4   8   0 1388.84 337.841   6
  -4  -8   0 1224.66 358.965   6
  -4   8   0 1098.15 374.408   8
   4  -8   0 1472.30 385.689   3
   4   8   0 1965.65 578.226   5
   4   8   0 1843.63 452.445   1
  -4   8  -1 478.550 257.400   8
   4  -8  -1 536.461 261.875   3
   4   8   1 566.818 311.674   5
   4  -8  -1 268.497 234.797   5
   4   8   1 458.243 208.158   1
  -4  -8   1 226.298 117.280   6
  -4   8  -2 5621.54 790.099   8
   4   8   2 5693.53 1001.02   5
   4  -8  -2 6789.47 937.914   5
   4   8   2 5864.68 844.116   1
  -4  -8   2 4907.30 1135.42   6
   4  -8  -2 6271.69 946.232   3
  -4   8  -3 342.181 230.097   8
   4  -8  -3 286.783 194.043   5
   4   8   3 186.198 78.0361   5
   4   8   3 773.997 336.452   1
  -4  -8   3 373.720 186.838   6
   4   8   4 5704.25 955.428   5
   4   8   4 5097.71 788.666   7
   4   8   4 6310.93 997.228   1
  -4  -8   4 6140.91 1360.09   6
  -4   8  -5 313.476 242.375   8
   4   8   5 286.069 210.027   7
   4   8   5 103.416 145.661   5
  -4  -8   5 446.818 269.010   6
  -4   8  -6 9436.50 1480.37   8
   4   8   6 6289.63 996.939   7
  -4  -8   6 8632.71 1625.09   6
   4   9  -5 1134.80 607.544   5
  -4   9   5 1057.32 507.239   7
  -4  -9  -5 1654.49 474.921   2
  -4   9   5 834.587 312.828   6
   4   9  -5 921.715 361.519   1
   4   9  -4-141.815 251.237   5
  -4   9   4 55.3630 103.677   7
  -4  -9  -4-42.0727 126.378   2
  -4   9   4-134.983 58.6131   6
   4   9  -4 164.844 182.006   1
   4   9  -3 1402.29 548.183   5
  -4   9   3 1817.16 591.996   7
  -4   9   3 2302.77 517.642   6
   4   9  -3 1733.33 433.173   1
   4   9  -2-3.97147 76.9997   1
  -4   9   2 41.2440 21.4087   7
  -4   9   2-93.4806 106.142   6
   4  -9   2-42.7338 7.66819   1
  -4  -9  -1 1821.37 216.558   8
  -4   9   1 1479.19 515.959   8
   4   9  -1 1935.08 478.841   1
   4   9  -1 1491.27 486.455   5
   4  -9   1 1473.76 386.785   3
  -4   9   1 1461.60 430.733   6
  -4   9   0 133.320 92.6254   6
  -4   9   0-90.7158 114.870   8
   4  -9   0 78.6704 116.978   3
  -4  -9   0-9.43301 120.821   6
   4   9   0-58.5936 168.742   5
   4   9   0 239.821 203.600   1
  -4   9  -1 1128.42 383.016   8
   4  -9  -1 1224.12 404.401   3
   4   9   1 1746.58 523.665   5
   4   9   1 1750.53 471.443   1
  -4  -9   1 1988.97 615.993   6
   4  -9  -2 17.1563 91.3372   3
  -4   9  -2-35.2851 99.3723   8
   4   9   2-28.0291 138.940   1
   4   9   2-60.6487 79.3809   5
   4  -9  -2-52.7493 51.5499   5
  -4  -9   2-155.891 201.867   6
  -4   9  -3 1955.10 523.945   8
   4  -9  -3 1715.14 444.475   5
   4   9   3 2097.79 574.471   5
  -4  -9   3 2194.05 864.447   6
   4   9   3 2122.79 545.563   1
   4   9   4 13.4616 99.5883   1
  -4   9  -4-106.264 137.209   8
   4   9   4 51.8075 83.6234   7
   4   9   4 322.345 243.733   5
  -4  -9   4 83.3368 206.033   6
  -4   9  -5 1204.26 517.864   8
   4   9   5 890.143 324.245   7
  -4  -9   5 1344.91 570.365   6
   4  10  -5 805.391 455.065   5
  -4  10   5 449.563 275.013   7
  -4 -10  -5 786.957 328.497   2
  -4  10   5 494.656 233.650   6
   4  10  -5 608.068 304.141   1
   4  10  -4 7588.98 1390.03   5
   4  10  -4 7592.35 967.705   1
  -4  10   4 8246.77 1402.85   7
  -4 -10  -4 9131.11 1050.61   2
  -4  10   4 8002.77 938.972   6
   4  10  -3 474.849 236.665   1
   4  10  -3 743.424 458.774   5
  -4  10   3 282.144 231.577   7
  -4  10   3 634.876 297.392   6
   4  10  -2 16669.5 1820.06   5
   4 -10   2 13826.7 893.871   1
   4  10  -2 14319.7 1289.72   1
  -4  10   2 11830.0 1556.79   7
  -4  10   2 11128.5 1124.22   6
  -4  10   1 732.508 365.433   8
   4  10  -1 1087.77 451.935   5
   4 -10   1 400.185 219.382   3
   4  10  -1 674.463 279.062   1
  -4  10   1 219.543 228.692   7
  -4  10   1 327.460 210.956   6
  -4  10   0 10807.5 1263.30   8
   4 -10   0 9390.09 1080.15   3
   4  10   0 10957.9 1336.13   5
   4  10   0 10726.7 1153.24   1
  -4  10   0 9554.45 886.531   6
  -4 -10   0 9838.80 1176.64   6
  -4 -10   0 9803.63 585.001   3
   4  10   1 701.388 328.038   1
  -4  10  -1 510.423 231.804   8
   4 -10  -1 333.229 283.097   3
   4  10   1 576.015 270.981   5
  -4 -10   1 733.139 369.409   6
  -4  10  -2 14133.0 1325.25   8
   4  10   2 13127.1 1376.64   5
   4 -10  -2 16640.5 1471.07   5
   4  10   2 13837.5 1362.52   1
  -4 -10   2 11906.4 1996.85   6
   4 -10  -2 15384.5 1597.06   3
  -4  10  -3 208.578 162.860   8
   4  10   3 431.055 262.786   5
   4 -10  -3 142.469 120.920   5
   4  10   3 504.165 278.169   1
  -4 -10   3 529.105 494.100   6
  -4  10  -4 8646.64 1204.89   8
   4  10   4 7677.30 1014.65   5
   4  10   4 7824.92 1040.48   7
   4  10   4 7766.68 1167.03   1
  -4 -10   4 8569.78 1671.38   6
  -4  10  -5 714.133 376.416   8
   4  10   5 467.523 219.029   7
  -4 -10   5-62.8271 336.238   6
   4  11  -5 3347.18 664.644   1
   4  11  -5 3452.98 1003.22   5
  -4 -11  -5 4931.38 909.133   2
  -4  11   5 4028.88 1044.05   7
  -4  11   5 3658.25 687.219   6
   4  11  -4 34.9372 102.405   1
   4  11  -4 14.7738 207.906   5
  -4  11   4-68.7215 609.892   7
  -4 -11  -4 61.9300 133.851   2
  -4  11   4-87.6484 113.497   6
   4  11  -3 5229.38 1093.71   5
   4  11  -3 5287.43 804.567   1
  -4  11   3 6868.87 1222.70   7
  -4  11   3 6780.58 805.957   6
   4  11  -2-145.784 37.8243   5
   4  11  -2-47.6900 59.4372   1
  -4  11   2 83.3665 194.128   7
   4 -11   2 74.2674 77.9280   1
  -4  11   2 143.981 128.781   6
  -4  11   1 9162.42 1397.59   8
   4 -11   1 9026.89 1078.31   3
   4  11  -1 10400.2 1336.90   5
   4  11  -1 10201.8 1134.91   1
  -4  11   1 9543.55 1351.37   7
  -4  11   1 5929.40 861.052   6
  -4 -11   0-165.000 172.627   6
  -4 -11   0-15.8045 48.3286   3
  -4  11   0 78.8707 171.914   8
   4 -11   0-4.03392 135.926   3
   4  11   0 5.40135 82.5883   5
  -4  11   0 90.2658 110.368   7
   4  11   0-104.264 178.988   1
  -4  11   0-49.1079 88.5878   6
   4 -11  -1 7428.34 1113.03   3
  -4  11  -1 9719.87 1166.43   8
   4  11   1 8887.06 1143.93   5
  -4  11  -1 10684.8 1352.06   7
   4  11   1 10585.1 1199.43   1
  -4 -11   1 10605.6 1550.76   6
   4 -11  -2 70.6218 146.414   3
  -4  11  -2-10.8844 88.2077   8
   4  11   2 20.1388 94.9213   5
   4 -11  -2-7.34301 72.4574   5
  -4  11  -2-46.8046 169.151   7
   4  11   2 265.797 232.330   1
  -4 -11   2-123.675 210.407   6
  -4  11  -3 5678.97 916.063   8
   4  11   3 6945.95 958.348   5
   4 -11  -3 5791.33 731.578   5
   4  11   3 7112.56 965.387   7
   4  11   3 6254.84 995.242   1
  -4 -11   3 7320.96 1717.29   6
  -4  11  -4 5.12689 22.8153   8
   4  11   4 301.143 257.088   7
   4  11   4 57.7519 129.169   5
   4  11   4 15.8726 57.6734   1
  -4 -11   4 264.880 418.851   6
  -4  11  -5 4197.80 961.773   8
   4  11   5 3638.84 771.839   7
  -4 -11   5 5121.52 1276.12   6
   4  12  -5 258.663 159.709   1
   4  12  -5 748.415 497.762   5
  -4  12   5 171.491 254.124   7
  -4 -12  -5 582.669 342.258   2
   4  12  -4 86467.3 4750.73   5
   4  12  -4 87449.1 3386.39   1
  -4  12   4 103356. 5040.96   7
  -4 -12  -4 92419.9 3508.62   2
  -4  12   4 102528. 3256.18   6
   4  12  -3 622.095 377.134   5
   4  12  -3 715.769 296.297   1
  -4  12   3 445.130 304.252   7
  -4  12   3 610.960 215.937   6
   4  12  -2 120637. 4784.06   5
   4  12  -2 117304. 3905.86   1
  -4  12   2 115668. 4943.35   7
  -4  12   2 116257. 3089.49   6
  -4  12   1 806.566 464.972   8
   4  12  -1 1325.00 503.035   5
   4 -12   1 1063.55 387.246   3
  -4  12   1 1053.04 413.976   7
   4  12  -1 1252.12 401.955   1
  -4  12   1 573.221 249.917   6
  -4  12   0 159044. 5294.41   8
   4 -12   0 145333. 4788.08   3
   4  12   0 156234. 4874.22   5
  -4  12   0 165756. 5601.71   7
   4  12   0 148272. 4449.38   1
  -4  12   0 149556. 3495.53   6
  -4 -12   0 153040. 5260.95   6
  -4 -12   0 154526. 2691.03   3
  -4  12  -1 1115.07 400.698   8
   4 -12  -1 532.137 233.852   3
   4  12   1 1041.51 377.380   1
   4  12   1 987.022 381.345   5
  -4  12  -1 944.126 400.949   7
  -4 -12   1 588.102 350.303   6
  -4  12  -2 112970. 4054.24   8
   4  12   2 112530. 3868.82   5
   4 -12  -2 117406. 3934.40   5
   4  12   2 115910. 4165.79   1
  -4 -12   2 112443. 3714.38   4
  -4  12  -3 705.153 302.780   8
   4  12   3 340.259 211.025   7
   4  12   3 366.997 231.326   5
   4  12   3 802.892 363.506   1
  -4 -12   3 1042.14 674.515   6
  -4 -12   3 599.444 269.651   4
  -4  12  -4 88066.5 4084.36   8
   4  12   4 96550.2 3369.08   5
   4  12   4 92801.3 3816.89   7
   4  12   4 94383.0 4231.62   1
  -4  12  -5 810.765 432.099   8
   4  12   5 468.479 267.544   7
  -4 -12   5 986.349 608.599   6
  -4  13   5 11421.8 1779.11   7
  -4 -13  -5 12163.3 1487.08   2
   4  13  -4-47.9405 131.780   5
   4  13  -4 571.436 319.855   1
  -4  13   4 698.379 307.195   7
  -4 -13  -4 690.464 310.645   2
   4  13  -3 16625.4 1929.70   5
   4  13  -3 14708.0 1390.89   1
  -4  13   3 12656.2 1715.79   7
  -4 -13  -3 14391.5 1302.13   2
   4  13  -2 273.650 200.967   5
   4  13  -2 154.005 74.8586   1
  -4  13   2 369.463 296.405   7
  -4  13   1 15185.7 1895.70   8
   4 -13   1 17343.8 1614.85   3
   4  13  -1 16838.3 1678.95   5
   4  13  -1 18279.2 1580.82   1
  -4  13   1 19074.5 1941.97   7
  -4  13   1 13613.7 997.143   6
  -4 -13   0-74.0471 292.014   6
   4  13   0-39.7958 121.225   1
  -4 -13   0-0.88491 31.9292   3
  -4  13   0-173.518 305.505   8
   4 -13   0 185.850 184.577   3
   4  13   0 174.810 170.907   5
  -4  13   0-140.268 304.311   7
  -4  13   0-12.1995 31.8955   6
   4 -13  -1 12602.9 1546.34   3
  -4  13  -1 18590.6 1758.96   8
   4  13   1 17475.6 1543.84   5
  -4  13  -1 21763.4 1935.11   7
   4  13   1 17435.8 1601.38   1
  -4 -13   1 18826.5 2458.59   6
  -4 -13   1 17014.2 1408.56   4
  -4  13  -1 16544.5 1026.53   6
   4 -13  -2 669.494 351.674   3
  -4  13  -2 318.355 268.231   8
   4  13   2 73.1059 115.407   5
   4 -13  -2 51.5673 29.2260   5
  -4 -13   2-86.0424 427.258   6
  -4 -13   2 197.301 186.748   4
   4  13   2 334.674 193.742   1
  -4  13  -3 13606.7 1519.89   8
   4  13   3 13069.3 1272.36   5
   4  13   3 12767.7 1370.98   7
   4  13   3 11669.5 1404.16   1
  -4 -13   3 17636.9 2744.99   6
  -4 -13   3 13397.7 1391.35   4
   4 -13  -3 16137.1 1713.76   3
  -4  13  -4 375.546 207.931   8
   4  13   4 822.641 445.302   1
   4  13   4 177.186 172.436   7
  -4 -13   4 632.256 552.744   6
  -4 -13   4 328.342 108.637   4
  -4  13  -5 10184.6 1531.00   8
   4  13   5 10331.0 1376.44   7
   4  14  -4 9637.81 1623.02   5
   4  14  -4 8647.41 1084.60   1
  -4  14   4 7132.23 1368.29   7
  -4 -14  -4 9074.40 1154.43   2
   4  14  -3 335.256 104.655   5
  -4  14   3 281.719 367.876   7
   4  14  -3 623.234 249.334   1
  -4 -14  -3 271.000 246.848   2
   4  14  -2 6823.13 1141.75   5
   4  14  -2 6287.57 936.017   1
  -4  14   2 4837.08 1050.52   7
  -4 -14  -1 17.3600 162.267   6
  -4  14   1 130.796 310.219   8
   4  14  -1 526.042 323.207   5
   4 -14   1 246.503 198.304   3
  -4  14   1 225.255 233.265   7
   4  14  -1 176.226 168.387   1
  -4  14   0 6979.22 1203.75   8
   4 -14   0 6136.35 1101.54   3
   4  14   0 6719.70 1006.95   5
  -4  14   0 8486.70 1281.41   7
   4  14   0 7220.41 1012.80   1
  -4 -14   0 7366.44 1318.81   6
  -4 -14   0 7212.31 636.149   3
  -4  14  -1 410.552 346.025   8
   4 -14  -1 246.345 226.470   3
   4  14   1 11.8317 87.7545   5
  -4  14  -1 61.5299 113.195   7
   4  14   1 94.2713 113.182   1
  -4 -14   1 90.2158 39.1608   4
  -4 -14   1-191.346 254.833   6
   4  14   2 4160.98 726.485   5
  -4  14  -2 7413.36 1133.27   8
   4 -14  -2 6771.06 950.876   5
   4  14   2 4353.89 862.243   1
  -4 -14   2 2201.60 1046.30   6
  -4 -14   2 2905.06 615.740   4
   4 -14  -2 7019.73 1176.95   3
   4 -14  -3 349.117 283.282   3
  -4  14  -3 469.878 290.513   8
   4  14   3 352.368 189.703   5
   4  14   3 323.450 199.909   7
  -4 -14   3-271.696 339.954   6
   4  14   3 301.629 314.837   1
  -4 -14   3 446.482 258.407   4
  -4  14  -4 10092.3 1404.90   8
   4  14   4 7592.94 1150.45   7
   4  14   4 7721.00 1269.76   1
  -4 -14   4 9260.48 1280.03   4
  -4 -14   4 7520.47 1613.80   6
   4  15  -4-188.380 142.601   5
  -4  15   4 457.134 361.079   7
   4  15  -4 6.51419 40.5134   1
  -4 -15  -4 241.328 203.873   2
   4  15  -3 2779.85 779.467   5
  -4  15   3 2722.86 793.192   7
  -4 -15  -3 2737.82 592.157   2
   4  15  -3 2714.04 604.871   1
   4  15  -2 222.295 261.080   5
   4 -15   2 55.2030 110.165   3
  -4  15   2 347.059 290.787   7
   4  15  -2 100.044 154.569   1
  -4 -15  -1 3172.56 837.591   6
   4  15  -1 2580.49 590.221   1
  -4  15   1 1709.48 665.475   8
   4  15  -1 3431.62 750.055   5
   4 -15   1 2224.63 644.643   3
  -4  15   1 2840.64 791.795   7
  -4  15   0-50.8006 96.1267   8
   4 -15   0-109.776 194.782   3
   4  15   0-105.760 109.114   5
   4  15   0-138.423 131.460   1
  -4  15   0-107.478 142.410   7
  -4 -15   0-265.113 333.860   6
  -4  15  -1 2689.11 708.383   8
   4 -15  -1 2255.40 654.259   3
   4  15   1 2136.14 522.419   5
   4  15   1 1873.20 522.004   1
  -4 -15   1 2090.87 514.375   4
  -4 -15   1 2442.31 1095.52   6
   4 -15  -2 163.033 216.642   3
  -4  15  -2 635.998 323.677   8
   4  15   2-152.459 226.868   1
   4  15   2 76.5621 98.2822   5
  -4 -15   2 663.090 739.360   6
  -4 -15   2 230.751 182.969   4
   4 -15  -3 3738.00 862.486   3
  -4  15  -3 2298.95 657.877   8
   4  15   3 2579.30 724.647   1
   4  15   3 2843.53 586.208   5
   4  15   3 3253.32 731.528   7
  -4 -15   3 3764.47 1194.07   6
  -4 -15   3 2960.63 656.775   4
  -4  15  -4 261.602 241.534   8
   4  15   4 288.118 295.797   7
  -4 -15   4 60.0818 154.367   6
  -4 -15   4 246.694 171.645   4
   4  16  -3 561.484 311.139   5
  -4  16   3 441.481 368.056   7
  -4 -16  -3 507.892 303.672   2
   4  16  -3 627.286 279.704   1
   4  16  -2 15256.8 1738.59   5
   4 -16   2 15999.4 1758.18   3
  -4  16   2 17697.7 2045.28   7
  -4 -16  -2 15085.5 1377.37   2
   4  16  -2 13859.6 1441.48   1
  -4 -16  -1 124.868 79.0425   6
  -4  16   1-60.6218 361.531   8
   4  16  -1 204.552 135.096   1
   4  16  -1 513.939 324.055   5
   4 -16   1 322.241 237.933   3
  -4  16   1-120.320 135.024   7
  -4  16   0 21516.1 2308.55   8
   4 -16   0 19104.8 2046.94   3
   4  16   0 23036.9 1860.84   5
  -4  16   0 25045.8 2235.54   7
   4  16   0 21896.1 1871.40   1
  -4 -16   0 22470.3 2689.11   6
  -4  16  -1 531.304 376.898   8
   4 -16  -1 302.160 350.068   3
   4  16   1 259.927 180.897   5
  -4 -16   1 314.703 167.691   4
  -4 -16   1 523.825 517.428   6
   4  16   1 430.852 281.010   1
  -4  16  -2 15299.0 1748.23   8
   4  16   2 15075.5 1387.60   5
   4  16   2 13687.8 1575.91   1
  -4 -16   2 14896.3 2723.82   6
  -4 -16   2 14644.5 1463.94   4
   4 -16  -2 16820.3 1912.23   3
   4 -16  -3 444.749 306.083   3
  -4  16  -3 445.957 335.998   8
   4  16   3 466.249 177.429   1
  -4 -16   3 531.639 497.874   6
  -4 -16   3 12.2903 159.281   4
   4  17  -3 2144.03 534.297   1
   4  17  -3 3844.64 948.221   5
  -4  17   3 2992.64 843.446   7
  -4 -17  -3 3229.36 705.206   2
   4  17  -2-155.432 155.379   1
   4  17  -2-62.1305 153.605   5
   4 -17   2 127.865 194.775   3
  -4  17   2-270.013 274.907   7
  -4 -17  -2 43.5547 128.343   2
  -4 -17  -1 1163.99 580.527   6
  -4  17   1 1441.63 691.823   8
   4  17  -1 1926.64 568.147   5
   4 -17   1 1430.91 567.109   3
   4  17  -1 1473.83 483.869   1
  -4  17   1 3213.89 895.714   7
  -4  17   0-300.500 386.922   8
   4 -17   0 168.280 314.293   3
   4  17   0-76.3031 132.432   5
  -4  17   0-44.2545 14.9609   7
   4  17   0-98.5412 206.974   1
  -4 -17   0-417.602 309.659   4
  -4 -17   0-60.4661 417.052   6
  -4  17  -1 1936.54 667.502   8
   4  17   1 1940.84 580.148   1
   4 -17  -1 1485.40 555.977   3
   4  17   1 1672.93 491.302   5
  -4 -17   1 1060.16 776.505   6
  -4 -17   1 1391.05 436.976   4
  -4  17  -2 389.306 328.737   8
   4 -17  -2 53.1126 134.169   3
   4  17   2-204.681 174.631   5
   4  17   2-249.827 328.816   1
  -4 -17   2 210.544 390.395   6
  -4 -17   2-158.140 222.691   4
   4 -17  -3 2888.42 792.298   3
   4  17   3 2009.81 641.671   1
  -4  17  -3 2975.00 804.284   8
  -4 -17   3 2649.72 915.443   6
  -4 -17   3 2176.37 583.941   4
   4  18  -2 74680.1 3917.26   5
   4 -18   2 71740.6 4048.42   3
  -4  18   2 82215.4 4544.65   7
  -4 -18  -2 72361.9 3234.77   2
   4  18  -2 72830.5 3450.66   1
  -4  18   1 979.207 573.233   8
   4  18  -1 660.535 366.461   5
   4 -18   1 226.395 211.316   3
  -4  18   1 654.584 376.417   7
  -4 -18  -1 639.242 288.982   2
   4  18  -1 171.545 187.854   1
  -4 -18  -1 192.525 270.457   6
  -4  18   0 64195.8 4396.03   8
   4  18   0 66601.5 3250.03   5
   4  18   0 70686.1 3577.88   1
  -4 -18   0 69779.3 3222.32   4
  -4  18  -1 782.573 435.021   8
   4 -18  -1 583.571 393.873   3
   4  18   1 170.904 125.654   5
   4  18   1 429.544 279.771   1
  -4 -18   1 888.716 818.395   6
  -4 -18   1 603.063 289.569   4
  -4  18  -2 76009.3 4205.13   8
   4  18   2 77566.7 3198.57   5
   4  18   2 75939.5 3924.13   1
  -4 -18   2 80504.2 5460.25   6
  -4 -18   2 69890.7 3360.28   4
   4 -18  -2 82315.3 4424.43   3
  -4  19   1 9400.03 1876.81   8
   4  19  -1 9887.18 1355.88   5
   4 -19   1 8582.97 1462.15   3
  -4  19   1 11695.5 1667.72   7
  -4 -19  -1 10180.7 1168.80   2
   4  19  -1 11515.1 1433.27   1
  -4  19   0 199.585 258.505   8
   4  19   0-122.329 214.771   1
   4  19   0 331.564 245.013   5
   4 -19   0 4.58532 225.589   3
  -4 -19   0-279.691 270.520   4
  -4  19  -1 9786.98 1635.42   8
   4  19   1 9982.19 1211.39   5
   4 -19  -1 10910.5 1678.68   3
   4  19   1 9268.54 1363.86   1
  -4 -19   1 9835.91 1268.73   4
  -5   0   0-75.5829 106.984   8
   5   0   0 140.951 151.126   1
  -5   0   1-12.5070 77.7840   6
   5   0   1 84.6722 112.258   1
  -5   0  -1-44.9847 70.8316   8
   5   0  -1 292.181 366.085   5
   5   0   1 1.94762 96.9017   5
  -5   0  -2 7.50342 39.6909   8
   5   0  -2-3.95570 29.3390   5
   5   0   2 91.8531 155.330   1
   5   0   2 89.0044 217.941   5
  -5   0   2-7.64920 54.3684   6
  -5   0  -3 93.7405 99.7312   8
   5   0  -3 228.785 264.444   5
   5   0   3-183.549 659.887   5
  -5   0   3 251.200 321.923   6
   5   0   3-77.8413 90.3110   1
  -5   0  -4-85.3427 146.500   8
   5   0  -4 163.337 277.812   5
   5   0   4-80.3602 65.0206   1
  -5   0   4-148.717 261.151   6
  -5   0  -5 179.174 268.881   8
   5   0  -5 175.021 245.855   5
  -5   0  -5 192.823 170.048   2
   5   0   5 142.573 185.575   1
  -5   0   5-173.620 281.510   6
   5   1  -5 6489.59 1095.28   5
  -5  -1  -5 5276.08 929.679   8
  -5  -1  -5 5584.67 766.147   2
  -5   1   5 3376.41 838.347   6
  -5  -1  -4 628.897 295.270   8
   5   1  -4 669.537 309.115   5
   5  -1   4 1214.17 432.963   1
  -5   1   4 1097.86 477.589   6
  -5  -1  -3 5008.73 699.489   8
   5   1  -3 5776.47 1107.96   5
   5  -1   3 3987.00 665.839   1
  -5  -1  -2 731.304 234.926   8
   5  -1   2 695.831 276.955   1
   5   1  -2 743.068 383.224   5
   5  -1   2 838.939 696.712   5
  -5   1   2 1192.43 505.514   6
  -5   1   1 1012.14 391.392   6
   5  -1   1 610.446 240.641   1
  -5  -1  -1 1548.78 292.669   8
   5   1  -1 1276.71 616.484   5
   5  -1   1 1543.57 770.549   5
  -5  -1   0 598.113 208.099   8
  -5   1   0 334.168 148.336   8
   5   1   0 707.347 413.447   5
   5  -1   0 979.407 539.717   5
   5  -1   0 582.155 213.496   1
   5   1   0 585.746 246.512   1
  -5  -1   1 847.716 319.860   6
   5   1   1 1035.61 348.370   1
  -5   1  -1 1368.27 311.157   8
   5  -1  -1 1418.76 590.529   5
   5   1   1 1274.08 680.762   5
  -5   1  -2 773.536 275.764   8
   5  -1  -2 691.078 343.453   5
   5   1   2 613.413 258.651   1
   5   1   2 69.6826 197.079   5
  -5  -1   2 1293.67 550.810   6
   5   1   3 3357.43 637.162   1
  -5   1  -3 5236.31 743.372   8
   5  -1  -3 6110.91 1080.56   5
   5   1   3 2655.33 1207.64   5
  -5  -1   3 2700.93 849.471   6
  -5   1  -4 1037.17 397.229   8
   5  -1  -4 1117.88 453.986   5
   5   1   4 952.467 755.787   5
   5   1   4 911.705 315.589   1
  -5  -1   4 968.828 534.335   6
  -5   1  -5 5423.06 968.820   8
   5  -1  -5 6943.05 1048.23   5
  -5   1  -5 5022.99 676.575   2
   5   1   5 3312.23 1440.99   5
   5   1   5 3455.66 707.453   1
  -5  -1   5 4435.00 1050.90   6
  -5  -2  -5 163.462 151.400   8
   5   2  -5 1016.01 531.679   5
  -5  -2  -5 372.220 218.819   2
  -5   2   5 432.299 438.489   7
  -5   2   5 359.586 299.037   6
  -5  -2  -4 14039.1 1346.53   8
   5   2  -4 14880.4 1770.38   5
   5  -2   4 16474.5 1338.05   1
  -5   2   4 14660.1 1765.27   6
   5   2  -3 1413.43 731.295   5
   5  -2   3 1493.46 475.563   1
   5   2  -2 19408.4 2185.47   5
   5  -2   2 24746.9 1623.75   1
  -5   2   2 22434.7 2073.89   6
  -5  -2  -2 23431.2 1250.10   8
  -5   2   1 153.471 251.991   6
  -5  -2  -1 64.7988 63.9683   8
   5   2  -1 447.085 343.217   5
   5   2  -1 36.5603 192.729   1
   5  -2   1 284.105 267.859   1
  -5   2   0 27240.3 1540.48   8
   5   2   0 28515.5 1848.85   1
   5   2   0 23607.0 2639.94   5
  -5  -2   1 396.272 287.372   6
  -5   2  -1 501.784 268.444   8
   5   2   1-186.189 179.823   1
   5  -2  -1 375.026 338.080   5
   5   2   1 233.837 344.717   5
   5  -2  -2 21592.7 924.704   3
  -5   2  -2 22382.9 1398.40   8
   5  -2  -2 25711.3 2314.03   5
   5   2   2 19294.6 2794.52   5
   5   2   2 24057.9 1731.32   1
  -5  -2   2 23892.3 2176.45   6
   5   2   3 98.7808 188.906   1
  -5   2  -3 692.749 336.702   8
   5  -2  -3 82.6952 105.401   5
   5   2   3 626.763 707.532   5
  -5   2  -4 14120.6 1407.69   8
   5  -2  -4 15712.9 1598.19   5
   5   2   4 16492.3 3019.07   5
   5   2   4 15409.1 1466.86   1
  -5  -2   4 14518.3 1904.48   6
  -5   2  -5 884.349 471.346   8
   5  -2  -5 273.208 153.258   5
   5   2   5-132.102 195.841   1
   5   2   5 377.618 647.676   5
   5   3  -5 84406.6 4234.57   5
  -5  -3  -5 85238.7 3698.76   8
  -5   3   5 76945.7 5050.52   7
  -5  -3  -5 79970.3 3056.03   2
  -5   3   5 94032.9 4446.64   6
  -5  -3  -4 928.187 368.922   8
   5   3  -4 1211.76 573.265   5
   5  -3   4 918.026 284.830   1
  -5   3   4 879.185 425.798   6
  -5  -3  -3 127107. 3427.01   8
   5   3  -3 118183. 5337.15   5
  -5  -3  -2 1765.03 336.421   8
   5  -3   2 1508.45 393.687   1
   5   3  -2 1913.76 698.316   5
  -5   3   2 1473.10 524.234   6
  -5  -3  -1 163523. 2375.93   8
   5   3  -1 158080. 4386.86   1
   5  -3   1 165828. 4175.92   1
  -5   3   1 163726. 4686.67   6
   5   3   0 1570.61 409.160   1
  -5   3   0 2257.19 499.764   6
  -5   3   0 1639.07 383.030   8
   5   3   0 1316.08 644.745   5
   5  -3   0 2713.10 805.258   5
  -5   3  -1 166365. 3803.48   8
   5   3   1 170654. 4592.89   1
  -5  -3   1 167078. 4946.66   6
   5  -3  -2 1587.00 314.540   3
  -5   3  -2 1619.90 390.619   8
   5  -3  -2 2008.66 633.486   5
   5   3   2 720.871 548.549   5
   5   3   2 1662.56 466.393   1
  -5  -3   2 1368.00 507.871   6
  -5   3  -3 124552. 3751.20   8
   5  -3  -3 142200. 4970.05   5
   5   3   3 134368. 7571.25   5
   5   3   3 136273. 4273.99   1
  -5   3  -4 961.502 399.899   8
   5  -3  -4 884.707 339.861   5
   5   3   4 935.166 627.956   5
  -5  -3   4 1441.26 651.009   6
   5   3   4 906.742 349.882   1
  -5   3  -5 83061.3 3870.54   8
   5   3   5 88055.1 6112.37   5
  -5  -3   5 90327.9 4803.88   6
   5   3   5 78690.9 3606.98   1
  -5  -4  -5 658.720 345.940   8
   5   4  -5 581.328 429.103   5
  -5   4   5 1156.97 825.730   7
  -5  -4  -5 875.810 386.883   2
  -5   4   5 709.615 433.054   6
  -5  -4  -4 20860.0 1620.60   8
   5   4  -4 17152.0 2015.19   5
   5  -4   4 19617.2 1384.54   1
  -5   4   4 19656.6 1940.81   6
  -5  -4  -3 132.246 153.545   8
   5   4  -3-108.913 396.854   5
   5  -4   3 170.566 144.088   1
  -5   4   3 401.479 430.953   6
  -5  -4  -2 27342.0 1262.94   8
   5   4  -2 25072.4 1804.72   1
   5   4  -2 21331.8 2338.17   5
   5  -4   2 25228.0 1583.00   1
  -5   4   2 21658.4 2049.50   6
  -5  -4  -1 224.524 99.3696   8
   5   4  -1 82.3458 289.847   5
   5  -4   1-108.994 184.814   1
   5   4  -1 123.275 60.0270   1
  -5   4   1 133.831 106.719   6
   5   4   0 24007.9 2709.59   5
   5   4   0 28481.7 1874.82   1
  -5   4   0 28190.5 1732.10   8
  -5   4   0 27010.8 1687.20   6
  -5  -4   0 28039.2 1864.48   6
  -5  -4   1 433.019 302.665   6
  -5   4  -1 216.127 155.833   8
   5   4   1 173.705 203.660   1
   5   4   1 407.251 199.595   5
   5  -4  -1 43.4997 129.922   5
  -5   4  -2 23053.8 1502.54   8
   5  -4  -2 27787.6 2333.60   5
   5   4   2 24890.4 2886.62   5
   5   4   2 25425.8 1849.74   1
  -5  -4   2 24347.6 2252.98   6
   5  -4  -3 202.170 171.092   3
  -5   4  -3 219.130 151.517   8
   5   4   3 729.467 449.620   1
   5  -4  -3 73.5640 197.652   5
   5   4   3 749.202 573.585   5
  -5  -4   3 59.3143 195.141   6
  -5   4  -4 17985.5 1634.37   8
   5  -4  -4 21337.9 1768.25   5
   5   4   4 20838.6 2799.12   5
   5   4   4 20175.0 1758.92   1
  -5  -4   4 20896.3 2370.31   6
  -5   4  -5 90.7627 153.977   8
   5   4   5 489.894 522.275   5
   5   4   5 1028.79 500.403   1
  -5  -4   5 419.021 398.277   6
   5   5  -5 5897.73 1191.53   5
  -5  -5  -5 5503.91 939.056   8
  -5  -5  -5 5623.34 854.008   2
  -5   5   5 3604.25 1067.15   7
  -5   5   5 3592.22 809.847   6
  -5  -5  -4 514.604 227.273   8
   5   5  -4 942.016 456.738   5
  -5   5   4 246.884 174.969   6
  -5  -5  -3 5892.75 720.972   8
   5  -5   3 2957.73 524.040   1
   5   5  -3 5179.08 1166.83   5
  -5   5   3 2103.58 644.469   6
   5  -5   2 336.610 188.645   1
  -5  -5  -2 541.648 180.408   8
   5   5  -2 530.177 353.068   5
   5   5  -2 586.157 263.859   1
  -5   5   2 117.161 196.571   6
  -5   5   1 318.189 229.590   8
   5   5  -1 1348.58 607.356   5
   5  -5   1 481.317 250.508   1
   5   5  -1 1096.90 366.980   1
  -5   5   1 645.456 324.199   6
  -5   5   0 535.404 234.984   6
  -5  -5   0 547.794 290.432   6
  -5   5   0 423.157 215.877   8
   5   5   0 535.548 242.865   1
   5   5   0-333.784 454.491   5
   5  -5   0 475.293 311.895   5
  -5  -5   1 658.194 304.230   6
  -5   5  -1 1432.38 400.043   8
   5  -5  -1 1225.97 302.899   3
   5   5   1 765.435 365.486   1
   5   5   1 276.180 201.971   5
   5  -5  -1 1206.52 470.941   5
  -5   5  -2 361.993 166.674   8
   5  -5  -2 453.136 203.342   3
   5  -5  -2 495.861 300.206   5
   5   5   2 920.834 605.023   5
   5   5   2 829.317 343.921   1
  -5  -5   2 411.910 355.640   6
  -5   5  -3 5291.77 808.506   8
   5  -5  -3 5992.18 950.906   5
   5   5   3 2477.82 609.176   1
   5   5   3 2984.83 964.560   5
  -5  -5   3 1603.50 687.685   6
   5  -5  -3 5626.85 785.546   3
   5   5   4 436.674 270.536   1
  -5   5  -4 1118.67 403.415   8
   5  -5  -4 1238.71 415.069   5
   5   5   4 619.767 426.769   5
  -5  -5   4 806.520 549.815   6
  -5   5  -5 6067.45 1085.98   8
   5   5   5 3288.51 979.003   5
  -5  -5   5 3450.67 986.858   6
   5   5   5 3388.00 789.992   1
  -5  -6  -5 84.8490 112.399   8
   5   6  -5 167.852 159.654   5
  -5  -6  -5-25.1110 95.9387   2
  -5   6   5 316.518 232.821   6
  -5  -6  -4 1454.77 430.453   8
   5   6  -4 1619.84 651.777   5
  -5   6   4 1663.82 745.892   7
   5   6  -4 1386.04 494.863   1
  -5   6   4 755.899 348.120   6
  -5  -6  -3-100.657 126.636   8
   5   6  -3-96.3540 245.400   5
   5  -6   3-66.7839 95.7437   1
   5   6  -3-95.3350 50.1102   1
  -5   6   3-152.176 221.944   6
   5  -6   2 780.876 262.712   1
  -5  -6  -2 1281.78 254.369   8
   5   6  -2 1006.57 507.962   5
   5   6  -2 954.441 316.577   1
  -5   6   2 305.291 286.910   6
   5   6  -1 34.5533 104.823   1
  -5   6   1 103.320 160.077   8
   5   6  -1 21.6814 318.939   5
   5  -6   1 91.9947 70.7935   1
  -5   6   1 279.555 260.034   6
  -5   6   0 598.032 269.075   6
  -5  -6   0 588.465 312.631   6
  -5   6   0 546.354 257.453   8
   5   6   0 970.337 372.374   1
   5   6   0 304.517 252.287   5
   5  -6   0 777.113 482.826   5
  -5  -6   1 64.6141 76.0835   6
  -5   6  -1-60.6798 146.160   8
   5  -6  -1-100.605 160.844   3
   5   6   1 60.3334 165.373   5
   5   6   1-99.4691 208.036   1
   5  -6  -1 95.1998 262.601   5
  -5   6  -2 1018.82 338.733   8
   5  -6  -2 602.729 268.428   3
   5   6   2 779.443 460.670   5
   5  -6  -2 1194.12 468.297   5
   5   6   2 748.623 340.321   1
  -5  -6   2-66.4527 99.5553   6
   5  -6  -3-51.7205 156.590   3
  -5   6  -3-96.4350 124.744   8
   5   6   3-33.0719 92.5757   1
   5  -6  -3-24.8408 94.6598   5
   5   6   3-322.225 425.152   5
  -5  -6   3 330.227 396.253   6
   5   6   4 875.627 425.864   1
  -5   6  -4 450.748 228.357   8
   5  -6  -4 1437.95 438.998   5
   5   6   4 1201.51 577.223   5
  -5  -6   4 1759.10 728.988   6
  -5   6  -5-140.188 218.819   8
   5   6   5-139.086 241.191   5
   5   6   5 95.3058 110.639   1
  -5  -6   5 505.189 514.722   6
   5   7  -5 7292.65 1158.62   1
  -5  -7  -5 6623.92 1018.59   8
   5   7  -5 6034.04 1273.53   5
  -5  -7  -5 6910.46 999.114   2
  -5   7   5 6348.97 1367.67   7
  -5   7   5 6237.47 1013.95   6
  -5  -7  -4 638.612 277.843   8
   5   7  -4 659.034 450.750   5
  -5   7   4 205.046 133.740   7
   5   7  -4 488.454 238.240   1
  -5   7   4 639.286 336.381   6
  -5  -7  -3 8096.99 841.910   8
   5   7  -3 6515.24 1305.52   5
   5   7  -3 7635.96 1046.58   1
   5  -7   3 8143.03 802.816   1
  -5   7   3 6889.10 1113.36   6
   5  -7   2 682.385 247.143   1
   5   7  -2 1065.59 537.876   5
  -5   7   2 703.957 384.225   6
   5   7  -2 503.729 263.230   1
  -5   7   1 5246.66 967.046   8
   5  -7   1 5801.23 791.955   1
   5   7  -1 6659.63 1328.19   5
   5   7  -1 6990.15 952.994   1
  -5   7   1 5360.75 886.370   6
  -5   7   0 416.909 232.705   6
  -5  -7   0 832.978 354.360   6
  -5   7   0 523.270 254.285   8
   5   7   0 457.844 250.837   1
   5  -7   0 508.868 220.522   3
   5   7   0 1024.93 484.491   5
  -5   7  -1 6999.74 907.216   8
   5  -7  -1 5969.35 795.916   3
   5   7   1 6880.61 1371.94   5
   5  -7  -1 6710.24 1149.19   5
   5   7   1 7328.91 1029.27   1
  -5  -7   1 5223.82 946.038   6
  -5   7  -2 518.407 238.911   8
   5  -7  -2 411.334 243.469   3
   5   7   2 289.405 249.597   5
   5  -7  -2 689.239 334.729   5
  -5  -7   2 311.107 215.964   6
   5   7   2 547.578 282.694   1
  -5   7  -3 7032.68 956.805   8
   5  -7  -3 8804.74 1136.56   5
   5   7   3 7262.48 1350.37   5
   5   7   3 7311.10 1086.32   1
  -5  -7   3 6985.29 1565.43   6
   5  -7  -3 9893.01 1159.56   3
  -5   7  -4 549.725 291.480   8
   5   7   4 490.459 315.959   1
   5   7   4 316.124 284.643   5
  -5  -7   4 890.185 417.764   6
  -5   7  -5 7584.10 1223.05   8
   5   7   5 5208.32 1068.94   5
  -5  -7   5 8122.52 1545.05   6
   5   7   5 5497.03 1043.91   1
   5   8  -5-21.6312 262.668   5
  -5  -8  -5 76.8823 124.753   8
  -5   8   5 97.2437 282.173   7
  -5  -8  -5 190.380 140.967   2
  -5   8   5 10.1982 79.8952   6
   5   8  -5 156.981 121.990   1
   5   8  -4 7722.31 1474.51   5
  -5  -8  -4 10862.6 1123.20   8
   5   8  -4 10485.8 1272.60   1
  -5   8   4 10196.8 1680.47   7
  -5   8   4 10630.9 1307.59   6
  -5  -8  -3 88.1419 68.9002   8
   5   8  -3-184.328 380.182   5
  -5   8   3-305.068 371.352   7
  -5   8   3-183.536 130.332   6
   5   8  -3 95.3258 139.166   1
   5   8  -2 11554.8 1770.50   5
   5   8  -2 12250.6 1311.01   1
   5  -8   2 11262.5 999.934   1
  -5   8   2 7261.30 1207.49   6
  -5   8   1-49.0722 91.8628   8
   5   8  -1 168.261 189.013   1
   5   8  -1 60.8551 208.676   5
  -5   8   1-20.6176 19.1148   6
  -5   8   0 12085.9 1345.61   8
   5  -8   0 11608.6 1137.47   3
   5   8   0 14103.5 1869.46   5
   5   8   0 12901.0 1364.08   1
  -5   8   0 10746.0 1066.63   6
  -5  -8   0 11368.3 1300.59   6
  -5   8  -1-26.5157 177.775   8
   5  -8  -1 47.5391 55.5188   3
   5   8   1 412.297 341.593   5
   5  -8  -1 73.7682 100.495   5
   5   8   1 275.351 240.881   1
  -5  -8   1 89.6456 203.811   6
   5  -8  -2 8441.87 1091.12   3
  -5   8  -2 12019.3 1224.62   8
   5   8   2 12419.1 1727.77   5
   5  -8  -2 14311.0 1520.13   5
   5   8   2 12509.8 1397.26   1
  -5  -8   2 13290.0 1907.33   6
   5  -8  -3-89.7423 93.8105   3
  -5   8  -3-117.016 144.000   8
   5  -8  -3 36.3027 86.7078   5
   5   8   3 377.280 318.038   5
   5   8   3 132.344 200.711   1
  -5  -8   3-16.5052 240.005   6
  -5   8  -4 11015.0 1365.27   8
   5   8   4 9086.77 1403.25   5
   5   8   4 9726.32 1347.48   1
  -5  -8   4 11072.2 1887.21   6
   5  -8  -4 13471.4 1372.33   3
   5   8   5 53.1099 59.3681   1
  -5   8  -5-219.693 279.222   8
   5   8   5 214.193 173.155   5
  -5  -8   5 461.438 543.046   6
   5   9  -5 63093.2 3394.46   1
  -5   9   5 67603.3 4427.66   7
  -5  -9  -5 73147.7 3405.16   2
  -5   9   5 69261.4 3281.17   6
   5   9  -4 534.524 456.952   5
  -5   9   4 681.824 404.067   7
  -5   9   4 677.125 314.257   6
   5   9  -4 419.953 189.218   1
   5   9  -3 82606.3 4834.62   5
   5   9  -3 92948.6 3698.18   1
  -5   9   3 87882.3 4761.12   7
  -5   9   3 97976.5 3904.11   6
   5  -9   2 1156.86 305.205   1
   5   9  -2 1351.25 439.230   1
   5   9  -2 1343.44 576.784   5
  -5   9   2 688.722 349.287   6
   5   9  -1 131731. 5805.32   5
   5   9  -1 120965. 4165.33   1
  -5   9   1 117288. 4245.11   6
  -5   9   0 1261.70 375.040   6
  -5  -9   0 1398.17 467.435   6
  -5   9   0 1405.90 497.241   8
   5  -9   0 1547.80 442.784   3
   5   9   0 1766.43 686.776   5
   5   9   0 1525.56 467.276   1
  -5   9  -1 121839. 4117.47   8
   5   9   1 136762. 5602.23   5
   5  -9  -1 121585. 4784.12   5
   5   9   1 122827. 4383.16   1
  -5  -9   1 120754. 4975.77   6
  -5   9  -2 900.955 344.685   8
   5  -9  -2 1035.73 415.098   3
   5   9   2 1281.57 446.410   1
   5   9   2 1135.24 491.263   5
   5  -9  -2 1156.25 445.508   5
  -5  -9   2 491.886 325.488   6
  -5   9  -3 87883.1 3570.79   8
   5  -9  -3 106729. 3807.62   5
   5   9   3 106459. 4790.74   5
   5   9   3 105143. 4285.77   1
  -5  -9   3 83129.1 5497.91   6
   5  -9  -3 118939. 4328.00   3
   5  -9  -4 757.432 331.739   3
  -5   9  -4 654.337 327.945   8
   5   9   4 529.758 310.479   5
   5   9   4 1063.36 491.622   1
  -5  -9   4 744.895 510.591   6
  -5   9  -5 65512.5 3739.59   8
   5   9   5 65254.3 3792.26   1
   5  10  -4 13632.9 2020.84   5
   5  10  -4 17211.4 1651.04   1
  -5  10   4 17872.4 2170.68   7
  -5 -10  -4 17968.4 1585.38   2
  -5  10   4 18407.0 1573.29   6
   5  10  -3 429.048 251.500   1
   5  10  -3-42.0708 77.7775   5
  -5  10   3 521.595 404.041   7
  -5  10   3 369.643 244.362   6
   5  10  -2 21779.1 2418.20   5
   5 -10   2 20607.4 1316.09   1
   5  10  -2 22016.6 1794.73   1
  -5  10   2 16776.1 2007.41   7
  -5  10   2 15839.5 1585.17   6
  -5  10   1-51.7806 242.823   8
   5  10  -1 608.586 381.477   5
   5  10  -1 177.571 95.7231   1
  -5  10   1-7.20045 205.214   6
  -5  10   0 23923.6 2052.56   8
   5 -10   0 20872.6 1731.07   3
   5  10   0 26973.8 2513.21   5
   5  10   0 24917.0 1966.17   1
  -5  10   0 22815.3 1577.89   6
  -5 -10   0 23487.3 2023.11   6
  -5  10  -1 289.161 218.890   8
   5 -10  -1 267.978 213.564   3
   5  10   1 511.523 363.430   5
   5 -10  -1 314.470 244.731   5
   5  10   1 185.745 105.594   1
  -5 -10   1 60.8494 191.808   6
   5 -10  -2 19814.4 1858.39   3
  -5  10  -2 20660.2 1722.08   8
   5  10   2 22752.4 2186.86   5
   5 -10  -2 23244.0 1923.71   5
   5  10   2 20906.8 1865.66   1
  -5 -10   2 18346.5 2461.97   6
   5 -10  -3 512.525 319.149   3
  -5  10  -3 56.4489 33.4692   8
   5  10   3 4.46085 158.241   5
   5 -10  -3 144.382 125.184   5
   5  10   3 86.2516 170.306   1
  -5 -10   3 404.236 308.749   6
  -5  10  -4 16926.3 1737.77   8
   5  10   4 17702.7 1815.24   5
   5  10   4 19939.1 1986.33   1
  -5 -10   4 20654.9 2720.96   6
   5 -10  -4 20647.6 1772.40   3
   5  11  -4 625.424 284.372   1
   5  11  -4 583.765 371.213   5
  -5  11   4 722.770 477.409   7
  -5 -11  -4 960.109 353.773   2
  -5  11   4 325.858 161.835   6
   5  11  -3 5214.14 889.668   1
   5  11  -3 5255.42 1199.54   5
  -5  11   3 3336.09 908.827   7
  -5  11   3 3512.76 664.050   6
   5  11  -2 306.535 147.932   1
   5  11  -2 608.926 364.925   5
  -5  11   2 245.728 291.080   7
  -5  11   2 160.334 100.941   6
  -5  11   1 1791.00 630.873   8
   5  11  -1 4169.59 986.575   5
   5 -11   1 2192.35 571.788   3
   5  11  -1 3136.89 671.720   1
  -5  11   1 949.431 412.291   7
  -5  11   1 1399.03 492.188   6
  -5 -11   0 247.291 265.593   6
  -5  11   0 613.405 353.184   8
   5 -11   0 233.038 194.332   3
   5  11   0 326.879 242.413   5
   5  11   0 494.846 332.957   1
  -5  11   0 178.787 182.882   6
   5  11   1 2862.13 680.850   1
  -5  11  -1 2599.06 645.539   8
   5 -11  -1 1908.30 569.796   3
   5  11   1 2527.02 720.661   5
   5 -11  -1 2934.37 763.078   5
  -5  11  -1 3115.13 528.197   6
  -5 -11   1 2810.81 836.439   6
  -5  11  -2 333.472 217.004   8
   5 -11  -2 364.664 249.092   3
   5  11   2 238.769 187.420   5
   5  11   2 732.559 365.861   1
   5 -11  -2 335.924 303.838   5
  -5 -11   2 381.307 454.800   6
  -5  11  -3 5710.48 962.099   8
   5  11   3 3184.25 764.126   5
  -5 -11   3 3558.73 1252.53   6
   5 -11  -3 6125.78 1031.23   3
   5  11   3 3373.96 771.371   1
   5 -11  -4 693.615 325.579   3
  -5  11  -4 720.471 386.137   8
   5  11   4 1050.78 460.933   5
   5  11   4 668.881 352.136   1
  -5 -11   4 907.267 559.642   6
   5  12  -4 2552.10 635.197   1
   5  12  -4 1647.65 774.383   5
  -5  12   4 2136.74 774.490   7
  -5 -12  -4 1846.91 540.547   2
   5  12  -3-147.496 141.221   5
   5  12  -3-30.5586 163.110   1
  -5  12   3-37.0721 235.287   7
   5  12  -2 4205.48 1041.56   5
   5  12  -2 3270.71 732.485   1
  -5  12   2 3435.47 910.127   7
  -5  12   2 3721.43 663.507   6
  -5  12   1-151.025 233.002   8
   5  12  -1-57.0682 143.940   5
   5 -12   1 5.67183 116.479   3
  -5  12   1-206.466 135.812   7
   5  12  -1 125.129 254.861   1
  -5  12   1 18.1092 119.314   6
  -5 -12   0 4637.98 987.154   6
   5  12   0 5090.09 1042.90   5
  -5  12   0 4120.32 920.436   8
   5 -12   0 3616.30 793.268   3
   5  12   0 4575.46 885.632   1
  -5  12   0 3982.40 887.126   7
  -5  12   0 4324.64 731.942   6
  -5  12  -1 103.533 119.971   6
  -5  12  -1 149.594 127.027   8
   5  12   1 123.140 90.0273   1
   5 -12  -1-244.064 236.497   3
   5  12   1 376.651 256.299   5
   5 -12  -1 41.8234 35.5694   5
  -5  12  -1-1.07561 73.1165   7
  -5 -12   1-55.3139 107.665   6
  -5  12  -2 2927.42 668.833   8
   5 -12  -2 2979.08 762.839   3
   5  12   2 3688.33 810.269   5
   5  12   2 5468.20 1000.91   1
   5 -12  -2 2928.16 653.811   5
  -5 -12   2 3521.12 1286.87   6
   5  12   3 250.765 340.420   1
   5 -12  -3 33.6872 119.439   3
  -5  12  -3 183.704 190.976   8
   5  12   3 53.1589 180.786   5
  -5 -12   3-247.842 448.855   6
   5  12   4 2208.85 694.391   1
   5 -12  -4 2141.90 595.975   3
  -5  12  -4 2043.51 630.752   8
   5  12   4 1918.35 543.903   5
  -5 -12   4 2350.15 916.138   6
   5  13  -3 12852.4 1916.68   5
   5  13  -3 11796.3 1383.07   1
  -5  13   3 10581.2 1601.93   7
   5  13  -2 811.944 429.389   5
   5  13  -2 694.833 319.872   1
  -5  13   2 378.502 244.930   7
  -5  13   1 11345.3 1780.68   8
   5 -13   1 13176.7 1538.06   3
   5  13  -1 15502.3 1902.47   5
   5  13  -1 13635.4 1502.90   1
  -5  13   1 12948.9 1667.42   7
  -5 -13  -1 11971.4 1526.41   6
  -5 -13   0 531.743 348.589   6
  -5  13   0 405.846 273.972   8
   5 -13   0 502.671 288.771   3
   5  13   0 220.063 188.800   5
  -5  13   0 630.583 324.594   7
   5  13   0 274.659 228.764   1
   5 -13  -1 8959.53 1362.82   3
  -5  13  -1 12938.8 1545.94   8
   5  13   1 14774.1 1675.31   5
   5 -13  -1 14096.5 1681.07   5
  -5  13  -1 15036.1 1672.81   7
   5  13   1 13429.7 1549.08   1
  -5 -13   1 12079.7 2036.82   6
  -5  13  -2 479.870 261.595   8
   5 -13  -2 975.272 459.693   3
   5  13   2 661.134 342.755   5
   5 -13  -2 357.688 197.575   5
   5  13   2 449.014 206.444   1
  -5 -13   2 613.943 484.737   6
  -5  13  -3 11909.7 1482.63   8
   5  13   3 11653.6 1385.16   5
   5  13   3 12824.1 1616.72   1
  -5 -13   3 13672.4 2588.38   6
   5 -13  -3 14381.1 1648.60   3
   5  14  -3-90.1126 280.332   5
   5  14  -3 105.115 64.3503   1
  -5  14   3-69.6450 140.724   7
   5  14  -2 6318.33 1255.18   5
   5  14  -2 4709.05 893.232   1
  -5  14   2 4429.00 992.898   7
  -5 -14  -1-69.3555 237.531   6
  -5  14   1 18.1805 248.516   8
   5  14  -1-188.541 186.756   5
   5 -14   1 63.1415 125.141   3
  -5  14   1 29.3479 175.632   7
   5  14  -1 220.627 282.429   1
   5  14   0 5005.43 1011.32   5
  -5  14   0 4694.87 1066.88   8
   5 -14   0 3534.63 896.564   3
  -5  14   0 5560.54 1051.34   7
   5  14   0 5104.17 947.504   1
  -5 -14   0 3832.05 1005.76   6
  -5  14  -1 152.852 149.499   8
   5 -14  -1-30.2257 187.233   3
   5  14   1-151.213 235.678   5
   5  14   1-36.2679 174.066   1
  -5 -14   1-143.028 358.088   6
   5 -14  -2 6112.33 1159.00   3
  -5  14  -2 5148.43 1000.73   8
   5  14   2 5584.67 969.174   5
   5  14   2 5968.26 1083.12   1
  -5 -14   2 3694.00 1375.66   6
   5 -14  -3 21.4338 227.760   3
  -5  14  -3 142.756 203.247   8
   5  14   3 60.9055 86.6055   5
   5  14   3-163.042 188.651   1
  -5 -14   3 32.7287 475.865   6
   5  15  -3 71656.1 4538.53   5
   5  15  -3 60010.8 3221.69   1
  -5  15   3 63434.7 3979.00   7
  -5 -15  -3 63045.6 3126.07   2
   5  15  -2 809.455 384.199   5
  -5  15   2 642.788 328.235   7
   5  15  -2 653.905 323.435   1
  -5  15   1 66641.4 4552.76   8
   5 -15   1 68655.2 3922.38   3
   5  15  -1 81390.8 4275.22   5
  -5  15   1 79737.8 4120.46   7
   5  15  -1 76367.8 3726.19   1
  -5 -15  -1 72473.3 4308.94   6
  -5  15   0 572.461 373.799   8
   5  15   0 1214.58 486.907   1
   5 -15   0 1001.85 462.929   3
   5  15   0 1258.98 519.381   5
  -5  15   0 1297.67 528.571   7
  -5 -15   0 574.046 366.629   6
  -5  15  -1 74036.7 4073.87   8
   5 -15  -1 67187.4 4079.14   3
   5  15   1 77367.6 3745.63   5
   5  15   1 80267.8 3942.67   1
  -5 -15   1 82162.7 6371.58   6
   5  15   2 763.021 355.703   1
  -5  15  -2 973.187 425.167   8
   5 -15  -2 650.435 393.539   3
   5  15   2 1151.26 431.199   5
  -5 -15   2 943.965 842.543   6
  -5  15  -3 59893.3 3561.05   8
   5  15   3 63844.3 3154.95   5
   5  15   3 62520.2 3746.42   1
  -5 -15   3 70984.6 6081.22   6
   5 -15  -3 69603.2 3759.26   3
   5  16  -2 18208.7 2148.41   5
  -5  16   2 16987.9 2009.96   7
   5  16  -2 17108.3 1756.35   1
  -5 -16  -1-255.467 358.696   6
  -5  16   1 183.829 150.866   8
   5  16  -1 101.682 180.421   1
   5  16  -1 405.318 337.413   5
   5 -16   1-121.965 99.5868   3
  -5  16   1 201.657 215.881   7
  -5  16   0 17290.8 2209.27   8
   5 -16   0 15551.0 1977.12   3
   5  16   0 22375.1 2103.38   5
   5  16   0 22911.9 2109.78   1
  -5 -16   0 14485.9 2350.75   6
  -5  16  -1-76.7026 118.513   8
   5 -16  -1 341.288 262.089   3
   5  16   1-46.6905 190.843   5
   5  16   1 114.314 165.049   1
  -5 -16   1 522.698 626.992   6
   5 -16  -2 19614.2 2143.82   3
  -5  16  -2 16045.3 1869.96   8
   5  16   2 18220.4 1741.52   5
   5  16   2 18058.7 1971.65   1
  -5 -16   2 13160.9 2946.01   6
  -5 -17  -1 3475.54 1076.38   6
  -5  17   1 3557.00 1109.75   8
   5  17  -1 3780.08 905.413   5
   5  17  -1 4117.47 880.601   1
   5 -17   1 1884.95 678.950   3
  -5  17   1 3350.90 869.466   7
  -5  17   0 231.380 288.652   8
   5  17   0 153.599 93.7617   5
   5 -17   0 46.1541 230.484   3
   5  17   0-147.883 325.361   1
  -5 -17   0 745.786 493.498   6
  -5  17  -1 3432.91 961.004   8
   5 -17  -1 3660.93 958.382   3
   5  17   1 2889.66 706.953   5
   5  17   1 4475.06 959.834   1
  -5 -17   1 2101.08 1136.32   6
   6   0   0 102312. 3893.74   1
   6   0   0 113888. 6009.46   5
  -6   0   0 108363. 4034.53   6
   6   0   1 1819.62 497.712   1
   6   0  -1 1105.25 568.426   5
   6   0   1 2904.03 1059.11   5
   6   0  -1 1272.58 411.825   1
  -6   0   1 1513.85 525.175   6
  -6   0  -2 112287. 3056.11   8
   6   0  -2 122512. 5644.84   5
   6   0   2 105908. 7260.66   5
   6   0   2 101864. 3855.94   1
  -6   0   2 106709. 5105.27   6
  -6   0  -3 2226.61 511.202   8
   6   0  -3 1898.53 669.819   5
   6   0   3 2167.42 1224.63   5
   6   0   3 2215.04 578.050   1
  -6   0   3 903.488 551.810   6
  -6   0  -4 80494.4 3357.82   8
   6   0  -4 79803.8 4174.36   5
   6   0   4 65431.1 7427.11   5
   6   0   4 76398.2 3418.81   1
  -6   0   4 66213.2 4248.62   6
   6   1  -4 326.269 331.569   5
   6  -1   4 100.504 155.279   1
   6  -1   4-213.856 386.980   5
  -6  -1  -3 25659.5 1635.61   8
   6   1  -3 25805.3 2547.85   5
   6  -1   3 25324.2 4233.42   5
   6  -1   3 23848.0 1847.76   1
   6  -1   2 379.882 231.645   1
   6   1  -2 382.492 307.931   5
   6  -1   2 193.150 437.480   5
  -6   1   2 1018.93 577.547   6
   6   1  -1 24357.5 1965.46   1
   6   1  -1 27052.7 2869.96   5
   6  -1   1 24943.6 1881.39   1
   6  -1   1 27923.6 3215.08   5
  -6   1   1 25923.0 2124.52   6
  -6   1   0 219.488 217.707   6
  -6  -1   0 921.872 423.331   6
   6   1   0 365.288 450.306   5
   6  -1   0 73.0446 276.355   5
   6  -1   0 115.495 124.287   1
   6   1   0 454.754 319.878   1
  -6   1  -1 24568.3 1409.66   8
   6  -1  -1 29835.7 2871.62   5
   6   1   1 24817.5 3139.60   5
   6   1   1 25719.6 1945.08   1
  -6  -1   1 25941.8 2138.77   6
  -6   1  -2 369.497 180.944   8
   6  -1  -2 1472.84 691.265   5
   6   1   2 890.989 418.142   1
   6   1   2 1653.32 1087.63   5
  -6  -1   2 122.430 97.2994   6
  -6   1  -3 24507.9 1678.37   8
   6  -1  -3 23557.2 2303.90   5
   6   1   3 19807.0 3507.62   5
   6   1   3 23145.7 1881.93   1
  -6  -1   3 15019.9 2150.16   6
  -6   1  -4 163.668 175.427   8
   6  -1  -4 967.555 527.334   5
   6   1   4 853.745 868.329   5
   6   1   4 1582.28 550.058   1
  -6  -1   4 53.9654 215.788   6
   6   2  -4 6787.79 1261.03   5
   6  -2   4 3303.83 678.380   1
   6  -2   4 4068.63 1956.44   5
  -6   2   4 2956.02 859.010   6
   6   2  -3 1383.12 616.016   5
   6  -2   3 2059.89 1075.12   5
   6  -2   3 1060.34 391.976   1
  -6   2   3 412.271 379.380   6
   6  -2   2 303.233 143.869   1
   6   2  -2 1562.49 628.352   5
   6  -2   2-8.19980 451.031   5
   6   2  -2 1007.95 423.438   1
  -6   2   2 837.429 427.872   6
   6  -2   1 575.271 229.876   1
   6   2  -1 127.416 167.742   5
   6  -2   1 678.865 475.009   5
   6   2  -1 607.050 286.190   1
  -6   2   1 940.100 401.644   6
  -6   2   0 1377.50 440.608   6
   6   2   0 1100.17 394.370   1
  -6  -2   0 1669.88 504.613   6
  -6   2   0 1076.71 339.548   8
   6   2   0 1171.28 661.815   5
   6  -2   0 1837.89 708.337   5
   6  -2   0 1573.94 495.888   1
  -6   2  -1 612.791 241.168   8
   6   2   1 1227.61 433.142   1
   6  -2  -1 1092.86 483.306   5
   6   2   1 683.802 445.125   5
  -6  -2   1 771.107 376.897   6
  -6   2  -2 1230.07 359.013   8
   6  -2  -2 1184.31 545.813   5
   6   2   2 840.729 684.422   5
   6   2   2 770.141 357.743   1
  -6  -2   2 1106.59 544.130   6
   6   2   3 1049.11 402.171   1
  -6   2  -3 946.098 338.576   8
   6  -2  -3 987.587 451.757   5
   6   2   3 887.841 710.423   5
  -6  -2   3 486.603 370.688   6
  -6   2  -4 5824.79 941.986   8
   6  -2  -4 5290.74 1003.61   5
   6   2   4 3593.11 1496.51   5
   6   2   4 3854.82 825.084   1
  -6  -2   4 2638.71 878.275   6
   6   3  -4 100.611 288.885   5
  -6   3   4 419.410 368.416   6
   6   3  -3 47.8344 108.388   5
   6  -3   3-103.646 468.342   5
   6  -3   3 206.923 176.496   1
  -6   3   3 225.191 331.935   6
   6  -3   2-111.793 71.0143   1
   6   3  -2 112.706 239.308   5
   6  -3   2 204.406 563.511   5
   6   3  -2-127.213 127.081   1
  -6   3   2 102.230 143.082   6
   6   3  -1 361.944 452.823   5
   6  -3   1 635.595 340.637   5
   6   3  -1 647.744 319.137   1
  -6   3   1 578.201 310.828   6
   6  -3   1 403.306 219.856   1
  -6   3   0-234.422 272.488   6
  -6  -3   0 524.873 320.702   6
   6   3   0 75.0776 202.661   1
  -6   3   0-73.1759 93.5208   8
   6   3   0-183.430 488.288   5
   6  -3   0 57.3258 304.794   5
   6  -3   0-122.508 211.195   1
  -6   3  -1 398.872 207.395   8
   6   3   1 658.850 277.815   1
   6   3   1 71.5661 121.892   5
   6  -3  -1 244.883 31.4960   5
  -6  -3   1 605.023 368.166   6
  -6   3  -2 22.3019 82.3216   8
   6  -3  -2 150.557 114.818   5
   6   3   2-168.514 278.317   5
   6   3   2-101.205 233.723   1
  -6  -3   2-125.516 105.641   6
   6   3   3 166.017 151.356   1
  -6   3  -3 357.126 224.409   8
   6  -3  -3 372.884 260.038   5
   6   3   3 277.518 418.509   5
  -6  -3   3 317.615 392.228   6
  -6   3  -4 144.588 158.873   8
   6  -3  -4 179.726 263.002   5
   6   3   4 6.07460 304.744   5
   6   3   4 208.326 149.306   1
  -6  -3   4 402.084 414.434   6
   6   4  -4 5243.08 1192.44   5
  -6   4   4 3820.55 951.816   6
   6   4  -3 1232.52 557.904   5
   6  -4   3 1249.34 405.058   1
   6   4  -3 968.623 443.332   1
  -6   4   3 382.882 333.058   6
   6   4  -2 6787.31 1075.95   1
   6  -4   2 5522.59 841.814   1
   6   4  -2 5332.34 1292.80   5
   6  -4   2 7344.12 1797.67   5
  -6   4   2 4767.83 1066.79   6
   6   4  -1 576.851 468.028   5
   6  -4   1 644.113 441.090   5
   6  -4   1 610.294 276.111   1
   6   4  -1 403.296 226.380   1
  -6   4   1 1089.89 447.783   6
  -6   4   0 3426.48 691.244   6
  -6  -4   0 3361.63 736.976   6
  -6   4   0 2915.01 639.141   8
   6   4   0 3175.98 710.536   1
   6   4   0 2746.43 993.702   5
   6  -4   0 3987.61 1033.63   5
   6  -4   0 2727.76 647.633   1
  -6   4  -1 320.975 177.440   8
   6   4   1 816.663 334.749   1
   6   4   1 296.434 225.452   5
   6  -4  -1 541.650 317.918   5
  -6  -4   1 824.911 410.528   6
  -6   4  -2 6542.66 865.221   8
   6  -4  -2 7973.83 1335.23   5
   6   4   2 6541.63 1029.42   1
   6   4   2 4571.01 1393.07   5
  -6  -4   2 5400.64 1169.91   6
  -6   4  -3 1177.33 394.938   8
   6   4   3 933.052 359.112   1
   6  -4  -3 703.396 307.137   5
   6   4   3 1693.11 908.800   5
  -6  -4   3 589.188 357.686   6
   6  -4  -4 4757.06 891.151   5
  -6   4  -4 2751.70 659.270   8
   6   4   4 4967.99 1527.84   5
   6   4   4 4030.10 867.408   1
  -6  -4   4 2186.34 747.018   6
   6   5  -4 455.438 455.468   5
   6   5  -4 412.911 272.397   1
  -6   5   4-86.1575 147.466   6
   6   5  -3 16407.9 1755.19   1
   6   5  -3 14236.7 2080.55   5
   6  -5   3 14479.1 1314.18   1
  -6   5   3 11800.5 1773.91   6
   6  -5   2-55.2508 193.977   1
   6   5  -2 342.483 408.105   5
   6   5  -2 93.4118 203.870   1
  -6   5   2-208.667 379.844   6
   6  -5   1 18055.7 1609.30   1
   6   5  -1 15459.7 2300.77   5
   6   5  -1 19216.2 1742.14   1
   6  -5   1 21467.7 2672.25   5
  -6   5   1 17273.7 1748.47   6
  -6   5   0 61.1570 75.9647   6
  -6  -5   0 165.178 179.430   6
  -6   5   0-68.2933 205.508   8
   6   5   0-50.9155 142.212   1
   6   5   0-66.6177 315.304   5
   6  -5   0 237.191 169.195   5
  -6   5  -1 21738.1 1637.67   8
   6   5   1 16166.4 2529.57   5
   6  -5  -1 19768.2 2132.64   5
   6   5   1 19825.4 1820.53   1
  -6  -5   1 19569.4 1943.74   6
  -6   5  -2 265.191 206.867   8
   6  -5  -2 100.596 64.6152   5
   6   5   2-97.2799 192.781   5
   6   5   2 9.06855 28.9443   1
  -6  -5   2 384.840 321.891   6
  -6   5  -3 14016.8 1373.44   8
   6  -5  -3 16917.6 1759.42   5
   6   5   3 14036.9 2395.10   5
   6   5   3 15029.1 1633.14   1
  -6  -5   3 10831.9 1929.19   6
  -6   5  -4 200.847 202.783   8
   6  -5  -4 65.4204 125.400   5
   6   5   4 310.024 359.855   5
  -6  -5   4 333.272 464.242   6
   6   5   4 264.561 256.548   1
   6   6  -4 69538.3 4572.79   5
   6   6  -4 65858.5 3778.88   1
  -6   6   4 72394.5 3964.83   6
   6   6  -3 2274.81 899.380   5
   6   6  -3 1598.72 527.753   1
  -6   6   3 1818.19 668.326   6
   6   6  -2 80524.7 3674.74   1
   6  -6   2 85139.8 3265.50   1
   6   6  -1 1257.70 433.708   1
   6   6  -1 521.109 360.811   5
   6  -6   1 1877.62 764.714   5
   6  -6   1 1340.92 432.904   1
  -6   6   1 1314.40 491.491   6
  -6   6   0 100926. 4016.51   8
   6   6   0 97105.3 5838.06   5
   6  -6   0 115330. 5444.00   5
   6   6   0 113544. 4305.76   1
  -6   6   0 106057. 3854.55   6
  -6  -6   0 110229. 4362.58   6
  -6   6  -1 1085.39 393.907   8
   6   6   1 1462.79 731.014   5
   6   6   1 1909.84 575.855   1
   6  -6  -1 1118.06 502.432   5
  -6  -6   1 1047.81 423.791   6
  -6   6  -2 83597.3 3364.12   8
   6   6   2 90394.5 5787.25   5
   6  -6  -2 92339.1 4364.59   5
   6   6   2 93891.3 4119.84   1
  -6  -6   2 83006.9 4818.16   6
  -6   6  -3 1820.10 504.655   8
   6   6   3 1237.99 452.058   1
   6  -6  -3 1442.63 507.674   5
   6   6   3 1950.84 896.032   5
  -6  -6   3 942.425 633.591   6
  -6   6  -4 62545.9 3218.80   8
   6   6   4 73366.9 5086.09   5
   6   6   4 69846.2 3739.39   1
  -6  -6   4 68187.4 4687.15   6
   6   7  -4 241.015 261.412   5
  -6   7   4-201.075 431.865   7
  -6   7   4 413.311 311.191   6
   6   7  -4 287.981 331.255   1
   6   7  -3 19167.4 2539.49   5
   6   7  -3 20750.8 1958.84   1
  -6   7   3 20632.3 2201.04   6
   6   7  -2 131.665 190.338   1
   6  -7   2-78.8825 160.887   1
   6   7  -2 359.866 425.800   5
  -6   7   2 334.518 265.337   6
   6  -7   1 31400.3 2114.29   1
   6   7  -1 27256.7 3066.34   5
   6   7  -1 28644.2 2185.49   1
   6  -7   1 31842.7 3169.72   5
  -6   7   1 28711.4 2271.86   6
  -6   7   0 270.240 182.654   6
  -6  -7   0 33.9669 109.837   6
  -6   7   0-629.280 318.554   8
   6   7   0-120.400 179.605   1
   6   7   0-163.731 220.341   5
   6  -7   0-167.909 372.226   5
  -6   7  -1 32889.0 2176.13   8
   6  -7  -1 29061.1 1808.22   3
   6   7   1 30399.8 3264.15   5
   6  -7  -1 30948.1 2603.00   5
   6   7   1 25801.1 2163.31   1
  -6  -7   1 29568.2 2526.55   6
  -6   7  -2 287.245 187.474   8
   6   7   2-331.043 471.037   5
   6  -7  -2-13.7885 198.041   5
   6   7   2 102.368 110.742   1
  -6  -7   2 95.5515 92.9969   6
  -6   7  -3 19301.3 1705.03   8
   6  -7  -3 22865.7 2002.80   5
   6   7   3 25308.4 2932.55   5
   6   7   3 24596.7 2195.24   1
  -6  -7   3 17254.5 2536.02   6
   6   7   4 38.4352 176.645   1
  -6   7  -4 23.9063 132.983   8
   6   7   4 672.474 496.198   5
  -6  -7   4 150.662 266.134   6
   6   8  -4 3499.65 1059.50   5
  -6   8   4 2403.29 918.859   7
  -6   8   4 2307.92 685.355   6
   6   8  -4 2475.25 705.218   1
   6   8  -3 190.943 179.090   1
   6   8  -3 657.969 430.129   5
  -6   8   3 444.674 271.263   6
   6   8  -2 2309.71 607.330   1
   6  -8   2 458.208 250.860   1
   6   8  -2 1800.36 880.379   5
  -6   8   2 511.326 381.921   6
   6   8  -1 592.792 246.108   1
   6   8  -1 736.846 534.222   5
   6  -8   1 618.412 284.175   1
  -6   8   1 542.609 346.852   6
  -6   8   0 923.495 356.650   6
  -6  -8   0 1266.29 470.059   6
  -6   8   0 1223.82 479.844   8
   6   8   0 901.399 489.879   5
   6   8   0 1261.92 471.823   1
   6  -8   0 1308.22 612.399   5
  -6   8  -1 548.281 302.090   8
   6  -8  -1 670.193 323.385   3
   6   8   1 488.840 399.884   5
   6  -8  -1 529.228 304.189   5
   6   8   1 662.308 348.814   1
  -6  -8   1 741.032 329.328   6
   6   8   2 925.362 468.908   1
  -6   8  -2 1597.28 507.625   8
   6   8   2 1227.52 665.740   5
   6  -8  -2 2788.51 756.172   5
  -6  -8   2 1259.73 638.466   6
  -6   8  -3 875.374 381.270   8
   6  -8  -3 554.437 313.417   5
   6   8   3 997.836 640.760   5
   6   8   3 269.401 197.611   1
  -6  -8   3 79.9436 332.685   6
   6   8   4 1671.75 619.517   1
  -6   8  -4 3170.42 741.906   8
   6   8   4 2247.36 833.839   5
  -6  -8   4 1605.19 756.575   6
   6   9  -3 1885.82 584.731   1
   6   9  -3 1314.34 656.878   5
  -6   9   3 893.463 490.915   7
  -6   9   3 1325.66 493.636   6
   6   9  -2-234.234 279.342   1
   6   9  -2-117.818 207.126   5
  -6   9   2 37.2704 93.8342   6
   6   9  -1 2846.52 702.550   1
   6   9  -1 3328.10 1078.71   5
   6  -9   1 2839.87 625.499   1
  -6   9   1 2551.28 721.859   6
  -6   9   0 274.273 209.660   6
  -6  -9   0-241.249 242.948   6
  -6   9   0 241.701 220.180   8
   6   9   0 96.0228 276.836   5
   6   9   0-19.1558 45.3426   1
   6  -9   0 224.570 203.094   5
  -6   9  -1 2075.19 503.338   6
  -6   9  -1 2708.98 690.266   8
   6  -9  -1 1585.98 496.680   3
   6   9   1 3338.99 1015.14   5
   6  -9  -1 1896.04 644.256   5
   6   9   1 3539.85 841.125   1
  -6  -9   1 2686.46 747.172   6
   6   9   2-84.1581 161.558   1
  -6   9  -2 102.643 42.0731   8
   6  -9  -2 118.056 160.835   3
   6   9   2-242.242 361.164   5
   6  -9  -2 470.580 350.774   5
  -6  -9   2 5.81886 184.791   6
  -6   9  -3 1692.08 522.543   8
   6  -9  -3 1684.19 519.267   5
   6   9   3 1734.28 709.172   5
   6   9   3 1910.45 634.567   1
  -6  -9   3 1061.95 706.707   6
   6  10  -3 925.820 444.346   1
   6  10  -3 1138.69 682.126   5
  -6  10   3 661.543 458.985   7
  -6  10   3 901.290 405.985   6
   6  10  -2 5682.61 991.291   1
   6  10  -2 5325.45 1352.04   5
  -6  10   2 4845.34 1182.62   7
  -6  10   2 3987.49 938.923   6
  -6 -10  -1 756.322 393.421   6
  -6  10   1 597.790 374.912   8
   6  10  -1 922.754 463.537   5
   6  10  -1 622.329 337.644   1
   6 -10   1 390.709 187.171   1
  -6  10   1 776.096 433.348   6
  -6  10   0 8327.14 1339.81   8
   6  10   0 12303.6 1994.79   5
   6 -10   0 9090.16 1528.41   5
   6  10   0 11576.9 1466.84   1
  -6  10   0 8713.76 1115.58   6
  -6 -10   0 9616.13 1447.58   6
  -6  10  -1 387.110 234.791   6
  -6  10  -1 67.4026 130.521   8
   6 -10  -1 956.312 451.754   3
   6  10   1 654.961 329.879   5
   6 -10  -1 568.360 338.091   5
   6  10   1 1068.23 479.354   1
  -6 -10   1 386.309 130.210   6
  -6  10  -2 5773.59 991.046   8
   6 -10  -2 4970.04 933.430   3
   6  10   2 5963.10 1270.96   5
   6 -10  -2 7102.20 1174.01   5
   6  10   2 5855.98 1076.78   1
  -6 -10   2 4307.33 1270.87   6
  -6  10  -3 1210.73 467.791   8
   6  10   3 887.239 452.608   5
   6  10   3 421.087 241.034   1
  -6 -10   3 295.838 277.537   6
   6  11  -3 8489.97 1267.13   1
   6  11  -3 6974.00 1573.40   5
  -6  11   3 7449.84 1486.24   7
   6  11  -2-260.091 154.430   5
   6  11  -2 213.968 272.078   1
  -6  11   2 149.233 35.7046   7
  -6  11   2 172.874 275.311   6
  -6  11   1 10678.7 1660.91   8
   6 -11   1 11293.4 1296.21   1
   6  11  -1 11056.9 1923.57   5
   6  11  -1 9861.61 1363.21   1
  -6  11   1 9149.87 1387.99   6
  -6 -11  -1 9604.11 1388.21   6
  -6 -11   0-66.6497 225.234   6
  -6  11   0-15.7054 243.065   8
   6  11   0-274.813 406.091   5
   6 -11   0-269.381 324.506   3
   6 -11   0-29.9653 161.035   5
   6  11   0-22.7711 146.264   1
  -6  11   0-130.128 162.161   6
  -6  11  -1 10090.9 1390.63   8
   6 -11  -1 7466.44 1172.27   3
   6  11   1 12472.9 1871.73   5
   6 -11  -1 10017.9 1477.28   5
   6  11   1 11465.0 1527.74   1
  -6 -11   1 11273.9 1820.90   6
  -6  11  -1 9710.10 1069.43   6
  -6  11  -2 98.0270 137.579   8
   6 -11  -2-134.990 246.223   3
   6  11   2-28.6472 55.4277   1
   6  11   2 254.008 250.202   5
   6 -11  -2 30.4416 118.511   5
  -6 -11   2-245.464 547.656   6
  -6  11  -3 7525.25 1177.98   8
   6  11   3 9625.67 1503.40   5
   6  11   3 8377.01 1381.42   1
  -6 -11   3 7193.62 1803.36   6
   6  12  -2 73130.8 5084.15   5
   6  12  -2 68449.4 3587.96   1
  -6  12   2 63409.5 4136.66   7
  -6 -12  -1 1177.51 513.313   6
  -6  12   1 658.300 394.386   8
   6  12  -1 1402.30 654.314   5
  -6  12   1 1311.96 574.078   7
   6  12  -1 800.420 372.908   1
  -6  12   0 59572.0 3812.43   8
   6 -12   0 52712.9 3272.47   3
   6  12   0 77837.1 4830.60   5
   6 -12   0 65227.9 4149.75   5
   6  12   0 69307.8 3737.47   1
  -6  12   0 52522.3 3486.29   7
  -6 -12   0 65366.4 4106.75   6
   6  12   1 1310.22 507.586   1
  -6  12  -1 373.098 128.211   8
   6 -12  -1 646.009 362.936   3
   6 -12  -1 708.201 358.342   5
  -6 -12   1 968.646 477.817   6
  -6  12  -2 63579.6 3483.98   8
   6 -12  -2 65751.7 3666.64   3
   6  12   2 70951.2 4168.74   5
   6 -12  -2 68022.7 3572.80   5
   6  12   2 75987.5 4117.19   1
  -6 -12   2 62743.3 5391.07   6
   6  13  -2-15.8316 247.787   5
   6  13  -2 199.017 286.945   1
  -6  13   2 332.376 278.645   7
  -6  13   1 20075.4 2422.76   8
   6  13  -1 26008.8 2840.15   5
   6  13  -1 21339.5 2086.75   1
  -6  13   1 20454.8 2238.93   7
  -6 -13  -1 21612.4 2295.03   6
  -6  13   0 119.978 144.915   8
   6  13   0 799.796 517.046   5
   6 -13   0 250.368 252.176   3
  -6  13   0 219.530 261.807   7
   6 -13   0-252.782 360.810   5
   6  13   0-52.1427 290.183   1
  -6 -13   0 220.845 319.790   6
  -6  13  -1 20409.2 2113.10   8
   6 -13  -1 13671.4 1726.34   3
   6  13   1 23076.1 2437.17   5
   6 -13  -1 16596.7 1976.20   5
   6  13   1 23701.3 2256.83   1
  -6 -13   1 20253.5 2821.79   6
  -6  13  -2 277.588 254.088   8
   6 -13  -2 112.097 137.642   3
   6  13   2 285.451 251.842   5
   6  13   2-173.581 288.216   1
  -6 -13   2 717.402 743.174   6
  -6 -14  -1-257.965 219.657   6
  -6  14   1 361.578 262.591   8
   6  14  -1 305.720 379.195   5
  -6  14   1 147.073 223.328   7
   6  14  -1 299.799 173.632   1
   6  14   0 535.708 269.160   1
  -6  14   0 677.475 453.624   8
   6  14   0 875.989 486.492   5
   6 -14   0 376.368 267.817   3
  -6  14   0 607.137 385.072   7
  -6 -14   0 865.772 482.387   6
  -6  14  -1 205.027 77.4935   8
   6 -14  -1 390.390 300.230   3
   6  14   1-76.4730 169.380   1
   6  14   1 412.241 317.663   5
   6 -14  -1 126.648 124.811   5
  -6 -14   1 781.681 615.745   6
  -7   0   0 259.717 265.566   6
   7   0   0 59.9473 31.8892   1
   7   0   0 28.7152 146.706   5
   7   0   1 35.4305 58.5171   1
   7   0  -1 377.608 369.697   5
   7   0   1-465.853 578.243   5
   7   0  -1-19.4909 196.708   1
  -7   0   1 160.085 171.077   6
   7   0  -2 670.257 449.555   5
   7   0   2 5.99233 282.843   5
   7   0   2-215.693 250.316   1
   7   0  -2-106.110 170.155   1
  -7   0   2-172.273 234.211   6
   7   0  -3-184.389 179.835   5
   7   0   3-100.535 227.634   5
  -7   0   3 81.3735 230.809   6
   7   0   3 303.383 261.462   1
   7   1  -3 3382.16 963.739   5
   7  -1   3 1647.16 1210.20   5
   7   1  -3 3048.25 912.391   1
   7  -1   3 2073.37 581.090   1
  -7   1   3 1608.75 787.812   6
   7   1  -2 1480.10 651.409   5
   7  -1   2 1631.34 561.802   1
   7  -1   2 1743.37 1072.76   5
   7   1  -2 902.419 485.704   1
  -7   1   2 644.917 432.840   6
   7  -1   1 1520.65 519.099   1
   7   1  -1 2698.10 926.022   5
   7  -1   1 2310.94 940.207   5
   7   1  -1 2207.00 666.917   1
  -7   1   1 2447.83 720.635   6
  -7   1   0 1183.05 481.783   6
  -7  -1   0 1232.40 504.459   6
   7   1   0 569.184 360.164   1
   7   1   0 839.259 721.003   5
   7  -1   0 1249.21 703.467   5
   7  -1   0 795.534 439.928   1
   7   1   1 2507.04 682.630   1
   7  -1  -1 2800.70 949.665   5
   7   1   1 1903.28 927.637   5
   7  -1  -1 2929.86 790.534   1
  -7  -1   1 3019.96 848.499   6
   7  -1  -2 1245.81 595.912   5
   7   1   2 965.793 706.604   5
   7   1   2 1029.72 438.771   1
   7  -1  -2 631.580 394.922   1
  -7  -1   2 935.655 617.065   6
   7   1   3 1378.36 490.847   1
   7  -1  -3 3633.59 942.891   5
   7   1   3 1812.77 1141.21   5
  -7  -1   3 1044.23 617.119   6
   7   2  -3 680.648 544.786   5
   7  -2   3-73.3766 527.382   5
   7   2  -3 297.703 377.934   1
   7  -2   3 621.783 364.027   1
  -7   2   3 87.4566 209.007   6
   7   2  -2 21924.1 2239.14   1
   7   2  -2 22995.0 2700.02   5
   7  -2   2 27707.0 3745.24   5
   7  -2   2 20798.4 1906.73   1
  -7   2   2 17715.1 2265.53   6
   7  -2   1 106.932 107.954   1
   7   2  -1-225.941 336.906   5
   7   2  -1-92.9065 217.364   1
  -7   2   1-123.119 149.191   6
   7  -2   0 23077.4 2131.04   1
   7   2   0 26887.8 3312.74   5
   7  -2   0 26397.2 2959.10   5
   7   2   0 23262.4 2085.55   1
  -7   2   0 24597.3 2151.87   6
  -7  -2   0 24003.1 2208.96   6
   7   2   1-59.1088 266.804   1
   7  -2  -1-92.3288 259.058   5
   7   2   1-387.483 585.078   5
   7  -2  -1 166.227 154.712   1
  -7  -2   1 422.577 418.054   6
   7  -2  -2 22597.1 2479.75   5
   7   2   2 15720.7 2924.55   5
   7   2   2 22765.2 2098.01   1
  -7  -2   2 22010.8 2615.24   6
   7   2   3-351.156 108.897   1
   7  -2  -3 82.3794 148.996   5
   7   3  -3 54933.7 3774.22   1
   7   3  -3 61306.1 4354.15   5
   7  -3   3 55950.5 3044.54   1
   7   3  -2 1964.91 837.576   5
   7  -3   2 2103.87 619.745   1
   7  -3   2 2350.27 1020.14   5
   7   3  -2 1119.75 498.502   1
  -7   3   2 1325.97 607.306   6
   7   3  -1 77242.5 5338.04   5
   7   3  -1 69358.1 3721.82   1
   7  -3   1 81785.0 5558.49   5
  -7   3   1 73063.3 4087.13   6
  -7   3   0 1608.77 549.347   6
  -7  -3   0 2005.40 592.181   6
   7   3   0 1038.88 482.580   1
   7   3   0 1404.47 763.524   5
   7  -3   0 2162.88 853.383   5
   7  -3   0 1315.62 517.196   1
   7  -3  -1 71557.4 4006.48   1
   7   3   1 61924.0 5392.84   5
   7  -3  -1 75209.5 4626.81   5
   7   3   1 74493.3 3783.16   1
  -7  -3   1 71672.9 4180.04   6
  -7   3  -1 69917.0 3455.42   6
   7  -3  -2 1940.05 752.183   5
   7   3   2 427.804 382.392   5
   7   3   2 1694.18 570.172   1
  -7  -3   2 1761.61 723.638   6
   7  -3  -3 60425.6 3732.19   5
   7   3   3 44604.4 5188.41   5
   7   3   3 54877.5 3307.82   1
  -7  -3   3 38636.9 3806.39   6
   7   4  -2 29681.7 3200.20   5
   7   4  -2 24641.9 2299.96   1
   7  -4   2 30016.4 3796.52   5
   7  -4   2 24926.3 2039.06   1
  -7   4   2 18879.2 2398.70   6
  -7  -4  -1 367.764 377.997   6
   7   4  -1-120.208 193.166   1
   7  -4   1 76.1593 42.9707   1
   7   4  -1-88.2903 475.141   5
   7  -4   1 530.278 484.128   5
  -7   4   1 49.0516 133.693   6
   7  -4   0 26217.1 2324.29   1
   7   4   0 23969.6 3220.77   5
   7  -4   0 30426.6 3057.34   5
   7   4   0 28347.9 2342.29   1
  -7   4   0 25936.1 2172.59   6
  -7  -4   0 26291.6 2367.20   6
  -7   4  -1 149.491 145.761   6
   7   4   1 258.277 231.374   1
   7   4   1 232.395 99.3425   5
   7  -4  -1-136.139 267.443   5
   7  -4  -1 341.397 295.772   1
  -7  -4   1 116.457 249.759   6
   7  -4  -2 26408.2 2580.05   5
   7   4   2 20528.6 3276.11   5
   7   4   2 26309.8 2308.44   1
  -7  -4   2 20300.0 2545.55   6
   7   5  -2 404.284 110.077   1
   7  -5   2 819.198 348.970   1
   7   5  -2 483.135 373.159   5
   7  -5   2 476.152 378.166   5
  -7   5   2 236.220 238.870   6
  -7  -5  -1 1152.64 474.524   6
   7  -5   1 1130.86 436.294   1
   7   5  -1 1225.93 486.479   1
   7   5  -1 1564.26 758.346   5
   7  -5   1 950.686 655.523   5
  -7   5   1 935.833 441.593   6
  -7   5   0 582.872 316.693   6
  -7  -5   0 866.461 471.547   6
   7   5   0 489.160 310.881   1
   7   5   0 548.991 463.644   5
   7  -5   0 746.097 508.091   5
   7  -5   0 410.823 377.718   1
  -7   5  -1 1594.28 522.512   6
   7   5   1 1287.67 789.491   5
   7  -5  -1 1640.80 631.946   5
   7   5   1 1142.72 411.868   1
  -7  -5   1 936.692 504.518   6
   7  -5  -2 992.134 491.030   5
   7   5   2 1321.29 526.498   1
  -7  -5   2 650.131 463.053   6
   7   6  -2 805.104 395.602   1
   7  -6   2 1068.38 395.163   1
   7   6  -2 1303.88 702.619   5
   7  -6   2 1352.75 696.866   5
  -7   6   2 975.677 602.743   6
   7  -6   1-63.5623 129.089   1
  -7  -6  -1-32.0173 175.047   6
   7   6  -1-28.3707 64.4285   1
   7   6  -1-46.4755 219.368   5
  -7   6   1-324.453 406.640   6
  -7   6   0 735.560 337.120   6
  -7  -6   0 1245.75 550.645   6
   7   6   0 1105.27 472.470   1
   7   6   0 842.309 663.673   5
   7  -6   0 1300.97 641.538   5
   7  -6   0 1070.90 480.142   1
  -7   6  -1 17.3867 143.014   6
   7   6   1-317.433 535.848   5
   7  -6  -1 381.592 294.965   5
   7   6   1-80.0666 216.505   1
  -7  -6   1-84.5517 93.3546   6
   7  -6  -2 1570.39 669.666   5
   7   6   2 1841.47 994.826   5
   7   6   2 1080.10 479.271   1
  -7  -6   2 1681.58 745.794   6
   7   7  -2 1004.23 425.287   1
   7   7  -2 645.416 371.176   5
   7  -7   2 995.345 479.091   5
  -7   7   2 814.012 555.533   6
   7  -7   1 5065.15 988.682   1
   7   7  -1 4616.89 958.115   1
   7   7  -1 4995.00 1453.15   5
   7  -7   1 4828.72 1295.63   5
  -7  -7  -1 6116.48 1140.17   6
  -7   7   1 4667.14 1032.32   6
  -7  -7   0 726.020 401.523   6
   7   7   0 618.421 582.406   5
   7   7   0 905.684 431.827   1
   7  -7   0 555.159 405.545   5
   7  -7   0 311.302 208.917   1
  -7   7   0 638.072 303.486   6
   7  -7  -1 5619.63 1207.28   5
   7   7   1 7115.05 1239.26   1
   7   7   1 5431.31 1509.74   5
  -7  -7   1 6873.58 1365.40   6
  -7   7  -1 4583.58 862.285   6
   7   7   2 926.489 635.223   5
   7  -7  -2 660.762 372.643   5
  -7  -7   2 876.586 503.480   6
   7   7   2 698.944 402.571   1
  -7  -8  -1-143.358 226.466   6
   7   8  -1-245.834 362.396   1
   7   8  -1 313.568 392.512   5
   7  -8   1 211.527 274.230   5
  -7   8   1-121.666 258.099   6
   7  -8   1 59.5272 31.6657   1
   7  -8   0 12330.9 1682.07   1
   7   8   0 12471.3 2313.80   5
   7  -8   0 11713.5 1812.03   5
   7   8   0 12820.3 1636.74   1
  -7   8   0 10883.7 1395.29   6
  -7  -8   0 13213.8 1777.55   6
  -7   8  -1-131.543 189.438   6
   7   8   1-210.074 493.179   5
   7  -8  -1 44.6016 64.0269   5
   7   8   1-95.2820 239.702   1
  -7  -8   1 138.545 191.868   6
   7   9  -1 45031.0 4405.01   5
   7  -9   1 54601.9 3214.88   1
   7  -9   1 53812.2 4264.22   5
   7   9  -1 54312.6 3384.23   1
  -7   9   1 45530.4 3286.44   6
  -7  -9  -1 50237.9 3377.38   6
  -7  -9   0 1811.12 689.435   6
   7   9   0 998.769 492.302   5
   7  -9   0 1515.63 624.550   5
   7   9   0 1387.05 485.426   1
   7  -9   0 986.668 495.920   1
  -7   9   0 1131.52 428.620   6
  -7   9  -1 51062.2 3246.14   8
   7   9   1 56402.2 4800.15   5
   7  -9  -1 48392.4 3459.00   5
   7   9   1 58043.2 3613.59   1
  -7  -9   1 53987.0 4060.56   6
  -7   9  -1 45795.0 2641.57   6
   0   0   0    0.00    0.00   0

;
_shelx_hkl_checksum   39323

